cases/Texas7k2.m
function mpc = Texas7k2
%TEXAS7K2

%% MATPOWER Case Format : Version 2
mpc.version = '2';

%%-----  Power Flow Data  -----%%
%% system MVA base
mpc.baseMVA = 100;

%% bus data
%	bus_i	type	Pd	Qd	Gs	Bs	area	Vm	Va	baseKV	zone	Vmax	Vmin	lam_P	lam_Q	mu_Vmax	mu_Vmin
mpc.bus = [
	1	1	0.22	0.08	0	0	7	1.0370926	-4.242394	138	1	1.1	0.9	27.4600	0.0100	0.0000	0.0000;
	2	1	0	0	0	0	7	1.0370926	-4.242394	13.8	1	1.1	0.9	27.4600	0.0100	0.0000	0.0000;
	3	1	0	0	0	0	7	1.0370926	-4.242394	13.8	1	1.1	0.9	27.4600	0.0100	0.0000	0.0000;
	4	1	0	0	0	0	7	1.0370926	-4.242394	1	1	1.1	0.9	27.4600	0.0100	0.0000	0.0000;
	5	1	79.7	38.66	0	0	7	1.0218551	-11.384533	138	1	1.1	0.9	27.4600	0.0100	0.0000	0.0000;
	6	1	0	0	0	0	7	1.0218551	-11.384533	13.8	1	1.1	0.9	27.4600	0.0100	0.0000	0.0000;
	7	1	0	0	0	0	7	1.0218551	-11.384533	13.8	1	1.1	0.9	27.4600	0.0100	0.0000	0.0000;
	8	1	0	0	0	0	7	1.0218551	-11.384533	1	1	1.1	0.9	27.4600	0.0100	0.0000	0.0000;
	9	1	5.9	2.03	0	0	7	1.028601	-3.558826	138	1	1.1	0.9	27.5100	0.0100	0.0000	0.0000;
	10	1	0	0	0	0	7	1.028601	-3.558826	13.8	1	1.1	0.9	27.5100	0.0100	0.0000	0.0000;
	11	1	0	0	0	0	7	1.028601	-3.558826	13.8	1	1.1	0.9	27.5100	0.0100	0.0000	0.0000;
	12	1	0	0	0	0	7	1.028601	-3.558826	1	1	1.1	0.9	27.5100	0.0100	0.0000	0.0000;
	13	1	15.3	3.54	0	0	7	1.011557	-12.681401	138	1	1.1	0.9	27.4400	0.0100	0.0000	0.0000;
	14	1	0	0	0	0	7	1.011557	-12.681401	13.8	1	1.1	0.9	27.4400	0.0100	0.0000	0.0000;
	15	1	0	0	0	0	7	1.011557	-12.681401	13.8	1	1.1	0.9	27.4400	0.0100	0.0000	0.0000;
	16	1	0	0	0	0	7	1.011557	-12.681401	1	1	1.1	0.9	27.4400	0.0100	0.0000	0.0000;
	17	1	11	2.71	0	0	7	1.0264433	-16.738404	138	1	1.1	0.9	27.4400	0.0100	0.0000	0.0000;
	18	1	0	0	0	0	7	1.0264433	-16.738404	13.8	1	1.1	0.9	27.4400	0.0100	0.0000	0.0000;
	19	1	0	0	0	0	7	1.0264433	-16.738404	13.8	1	1.1	0.9	27.4400	0.0100	0.0000	0.0000;
	20	1	0	0	0	0	7	1.0264433	-16.738404	1	1	1.1	0.9	27.4400	0.0100	0.0000	0.0000;
	21	1	8.3	1.88	0	0	7	1.0251749	-6.828781	138	1	1.1	0.9	27.4600	0.0100	0.0000	0.0000;
	22	1	0	0	0	0	7	1.0251749	-6.828781	22	1	1.1	0.9	27.4600	0.0100	0.0000	0.0000;
	23	1	0	0	0	0	7	1.0251749	-6.828781	22	1	1.1	0.9	27.4600	0.0100	0.0000	0.0000;
	24	1	0	0	0	0	7	1.0251749	-6.828781	1	1	1.1	0.9	27.4600	0.0100	0.0000	0.0000;
	25	1	7.3	2.11	0	0	7	1.0260746	-6.831657	138	1	1.1	0.9	27.4600	0.0100	0.0000	0.0000;
	26	1	0	0	0	0	7	1.0260746	-6.831657	13.8	1	1.1	0.9	27.4600	0.0100	0.0000	0.0000;
	27	1	0	0	0	0	7	1.0260746	-6.831657	13.8	1	1.1	0.9	27.4600	0.0100	0.0000	0.0000;
	28	1	0	0	0	0	7	1.0260746	-6.831657	1	1	1.1	0.9	27.4600	0.0100	0.0000	0.0000;
	29	1	7.7	2.03	0	0	7	1.0279168	-8.722837	138	1	1.1	0.9	27.4400	0.0000	0.0000	0.0000;
	30	1	0	0	0	0	7	1.0279168	-8.722837	13.8	1	1.1	0.9	27.4400	0.0000	0.0000	0.0000;
	31	1	0	0	0	0	7	1.0279168	-8.722837	13.8	1	1.1	0.9	27.4400	0.0000	0.0000	0.0000;
	32	1	0	0	0	0	7	1.0279168	-8.722837	1	1	1.1	0.9	27.4400	0.0000	0.0000	0.0000;
	33	1	7.5	1.8	0	0	7	1.0164845	-10.439684	138	1	1.1	0.9	27.6200	0.0100	0.0000	0.0000;
	34	1	0	0	0	0	7	1.0164845	-10.439684	13.8	1	1.1	0.9	27.6200	0.0100	0.0000	0.0000;
	35	1	0	0	0	0	7	1.0164845	-10.439684	13.8	1	1.1	0.9	27.6200	0.0100	0.0000	0.0000;
	36	1	0	0	0	0	7	1.0164845	-10.439684	1	1	1.1	0.9	27.6200	0.0100	0.0000	0.0000;
	37	1	4.25	0.68	0	0	7	1.032465	-7.927104	138	1	1.1	0.9	27.4500	0.0200	0.0000	0.0000;
	38	1	0	0	0	0	7	1.032465	-7.927104	13.8	1	1.1	0.9	27.4500	0.0200	0.0000	0.0000;
	39	1	0	0	0	0	7	1.032465	-7.927104	13.8	1	1.1	0.9	27.4500	0.0200	0.0000	0.0000;
	40	1	0	0	0	0	7	1.032465	-7.927104	1	1	1.1	0.9	27.4500	0.0200	0.0000	0.0000;
	41	1	2.56	0.53	0	0	7	1.0306011	-5.898392	138	1	1.1	0.9	27.4600	0.0100	0.0000	0.0000;
	42	1	0	0	0	0	7	1.0306011	-5.898392	24	1	1.1	0.9	27.4600	0.0100	0.0000	0.0000;
	43	1	0	0	0	0	7	1.0306011	-5.898392	24	1	1.1	0.9	27.4600	0.0100	0.0000	0.0000;
	44	1	0	0	0	0	7	1.0306011	-5.898392	1	1	1.1	0.9	27.4600	0.0100	0.0000	0.0000;
	45	1	1.73	0.53	0	0	7	1.0287298	-8.189099	138	1	1.1	0.9	27.4500	0.0200	0.0000	0.0000;
	46	1	0	0	0	0	7	1.0287298	-8.189099	13.8	1	1.1	0.9	27.4500	0.0200	0.0000	0.0000;
	47	1	0	0	0	0	7	1.0287298	-8.189099	13.8	1	1.1	0.9	27.4500	0.0200	0.0000	0.0000;
	48	1	0	0	0	0	7	1.0287298	-8.189099	1	1	1.1	0.9	27.4500	0.0200	0.0000	0.0000;
	49	1	3.09	0.3	0	0	7	1.0246793	-5.885151	138	1	1.1	0.9	27.4600	0.0100	0.0000	0.0000;
	50	1	0	0	0	0	7	1.0246793	-5.885151	18	1	1.1	0.9	27.4600	0.0100	0.0000	0.0000;
	51	1	0	0	0	0	7	1.0246793	-5.885151	18	1	1.1	0.9	27.4600	0.0100	0.0000	0.0000;
	52	1	0	0	0	0	7	1.0246793	-5.885151	1	1	1.1	0.9	27.4600	0.0100	0.0000	0.0000;
	53	1	4.25	0.68	0	0	7	1.0261359	-6.415464	138	1	1.1	0.9	27.4600	0.0100	0.0000	0.0000;
	54	1	0	0	0	0	7	1.0261359	-6.415464	13.8	1	1.1	0.9	27.4600	0.0100	0.0000	0.0000;
	55	1	0	0	0	0	7	1.0261359	-6.415464	13.8	1	1.1	0.9	27.4600	0.0100	0.0000	0.0000;
	56	1	0	0	0	0	7	1.0261359	-6.415464	1	1	1.1	0.9	27.4600	0.0100	0.0000	0.0000;
	57	1	0.61	0.21	0	0	7	1.0273869	-7.223056	138	1	1.1	0.9	27.4600	0.0100	0.0000	0.0000;
	58	1	0	0	0	0	7	1.0273869	-7.223056	24	1	1.1	0.9	27.4600	0.0100	0.0000	0.0000;
	59	1	0	0	0	0	7	1.0273869	-7.223056	24	1	1.1	0.9	27.4600	0.0100	0.0000	0.0000;
	60	1	0	0	0	0	7	1.0273869	-7.223056	1	1	1.1	0.9	27.4600	0.0100	0.0000	0.0000;
	61	1	1.58	0.38	0	0	7	1.027713	-6.530545	138	1	1.1	0.9	27.4600	0.0100	0.0000	0.0000;
	62	1	0	0	0	0	7	1.027713	-6.530545	18	1	1.1	0.9	27.4600	0.0100	0.0000	0.0000;
	63	1	0	0	0	0	7	1.027713	-6.530545	18	1	1.1	0.9	27.4600	0.0100	0.0000	0.0000;
	64	1	0	0	0	0	7	1.027713	-6.530545	1	1	1.1	0.9	27.4600	0.0100	0.0000	0.0000;
	65	1	3.24	1.05	0	0	7	1.0230903	-12.10872	138	1	1.1	0.9	27.4600	0.0100	0.0000	0.0000;
	66	1	0	0	0	0	7	1.0230903	-12.10872	24	1	1.1	0.9	27.4600	0.0100	0.0000	0.0000;
	67	1	0	0	0	0	7	1.0230903	-12.10872	24	1	1.1	0.9	27.4600	0.0100	0.0000	0.0000;
	68	1	0	0	0	0	7	1.0230903	-12.10872	1	1	1.1	0.9	27.4600	0.0100	0.0000	0.0000;
	69	1	10.4	2.26	0	0	7	1.021806	-9.693303	138	1	1.1	0.9	27.4800	0.0100	0.0000	0.0000;
	70	1	0	0	0	0	7	1.021806	-9.693303	13.8	1	1.1	0.9	27.4800	0.0100	0.0000	0.0000;
	71	1	0	0	0	0	7	1.021806	-9.693303	13.8	1	1.1	0.9	27.4800	0.0100	0.0000	0.0000;
	72	1	0	0	0	0	7	1.021806	-9.693303	1	1	1.1	0.9	27.4800	0.0100	0.0000	0.0000;
	73	1	5.7	1.13	0	0	7	1.0255971	-7.171018	138	1	1.1	0.9	27.4600	0.0100	0.0000	0.0000;
	74	1	0	0	0	0	7	1.0255971	-7.171018	13.8	1	1.1	0.9	27.4600	0.0100	0.0000	0.0000;
	75	1	0	0	0	0	7	1.0255971	-7.171018	13.8	1	1.1	0.9	27.4600	0.0100	0.0000	0.0000;
	76	1	0	0	0	0	7	1.0255971	-7.171018	1	1	1.1	0.9	27.4600	0.0100	0.0000	0.0000;
	77	1	2.41	0.45	0	0	7	1.0217643	-8.017345	138	1	1.1	0.9	27.4600	0.0100	0.0000	0.0000;
	78	1	0	0	0	0	7	1.0217643	-8.017345	18	1	1.1	0.9	27.4600	0.0100	0.0000	0.0000;
	79	1	0	0	0	0	7	1.0217643	-8.017345	18	1	1.1	0.9	27.4600	0.0100	0.0000	0.0000;
	80	1	0	0	0	0	7	1.0217643	-8.017345	1	1	1.1	0.9	27.4600	0.0100	0.0000	0.0000;
	81	1	4.7	0.22	0	0	7	1.0146134	-4.139481	138	1	1.1	0.9	27.4800	0.0100	0.0000	0.0000;
	82	1	0	0	0	0	7	1.0146134	-4.139481	24	1	1.1	0.9	27.4800	0.0100	0.0000	0.0000;
	83	1	0	0	0	0	7	1.0146134	-4.139481	24	1	1.1	0.9	27.4800	0.0100	0.0000	0.0000;
	84	1	0	0	0	0	7	1.0146134	-4.139481	1	1	1.1	0.9	27.4800	0.0100	0.0000	0.0000;
	85	1	4.07	1.05	0	0	7	1.0283858	-9.319997	138	1	1.1	0.9	27.5300	0.0100	0.0000	0.0000;
	86	1	0	0	0	0	7	1.0283858	-9.319997	18	1	1.1	0.9	27.5300	0.0100	0.0000	0.0000;
	87	1	0	0	0	0	7	1.0283858	-9.319997	18	1	1.1	0.9	27.5300	0.0100	0.0000	0.0000;
	88	1	0	0	0	0	7	1.0283858	-9.319997	1	1	1.1	0.9	27.5300	0.0100	0.0000	0.0000;
	89	1	3.89	0.38	0	0	7	1.0239356	-2.364095	138	1	1.1	0.9	27.4900	0.0100	0.0000	0.0000;
	90	1	0	0	0	0	7	1.0239356	-2.364095	18	1	1.1	0.9	27.4900	0.0100	0.0000	0.0000;
	91	1	0	0	0	0	7	1.0239356	-2.364095	18	1	1.1	0.9	27.4900	0.0100	0.0000	0.0000;
	92	1	0	0	0	0	7	1.0239356	-2.364095	1	1	1.1	0.9	27.4900	0.0100	0.0000	0.0000;
	93	1	0.58	0.14	0	0	7	1.009535	-3.536299	138	1	1.1	0.9	27.4800	0.0100	0.0000	0.0000;
	94	1	0	0	0	0	7	0.9650575	-6.973774	13.8	1	1.1	0.9	27.4800	0.0100	0.0000	0.0000;
	95	1	0	0	0	0	7	0.9650575	-6.973774	13.8	1	1.1	0.9	27.4800	0.0100	0.0000	0.0000;
	96	1	115	75.2	0	0	7	0.9650575	-6.973774	1	1	1.1	0.9	27.4800	0.0100	0.0000	0.0000;
	97	1	1.95	0.45	0	0	7	1.01813	-4.531549	138	1	1.1	0.9	27.4800	0.0100	0.0000	0.0000;
	98	1	0	0	0	0	7	1.01813	-4.531549	13.8	1	1.1	0.9	27.4800	0.0100	0.0000	0.0000;
	99	1	0	0	0	0	7	1.01813	-4.531549	13.8	1	1.1	0.9	27.4800	0.0100	0.0000	0.0000;
	100	1	0	0	0	0	7	1.01813	-4.531549	1	1	1.1	0.9	27.4800	0.0100	0.0000	0.0000;
	101	1	0.99	0.3	0	26.6	7	1.0337231	-1.639254	138	1	1.1	0.9	27.5000	0.0100	0.0000	0.0000;
	102	1	0	0	0	0	7	1.0337231	-1.639254	13.8	1	1.1	0.9	27.5000	0.0100	0.0000	0.0000;
	103	1	0	0	0	0	7	1.0337231	-1.639254	13.8	1	1.1	0.9	27.5000	0.0100	0.0000	0.0000;
	104	1	0	0	0	0	7	1.0337231	-1.639254	1	1	1.1	0.9	27.5000	0.0100	0.0000	0.0000;
	105	1	4.8	0.3	0	0	7	1.0279726	-3.325632	138	1	1.1	0.9	27.5100	0.0100	0.0000	0.0000;
	106	1	0	0	0	0	7	1.0279726	-3.325632	18	1	1.1	0.9	27.5100	0.0100	0.0000	0.0000;
	107	1	0	0	0	0	7	1.0279726	-3.325632	18	1	1.1	0.9	27.5100	0.0100	0.0000	0.0000;
	108	1	0	0	0	0	7	1.0279726	-3.325632	1	1	1.1	0.9	27.5100	0.0100	0.0000	0.0000;
	109	1	0.09	0.01	0	36.9	7	1.0356752	-10.632944	138	1	1.1	0.9	27.5500	0.0100	0.0000	0.0000;
	110	1	0	0	0	0	7	1.0356752	-10.632944	13.8	1	1.1	0.9	27.5500	0.0100	0.0000	0.0000;
	111	1	0	0	0	0	7	1.0356752	-10.632944	13.8	1	1.1	0.9	27.5500	0.0100	0.0000	0.0000;
	112	1	0	0	0	0	7	1.0356752	-10.632944	1	1	1.1	0.9	27.5500	0.0100	0.0000	0.0000;
	113	1	0.66	0.22	0	0	7	1.0361981	-3.69265	138	1	1.1	0.9	27.4600	0.0100	0.0000	0.0000;
	114	1	0	0	0	0	7	1.0361981	-3.69265	18	1	1.1	0.9	27.4600	0.0100	0.0000	0.0000;
	115	1	0	0	0	0	7	1.0361981	-3.69265	18	1	1.1	0.9	27.4600	0.0100	0.0000	0.0000;
	116	1	0	0	0	0	7	1.0361981	-3.69265	1	1	1.1	0.9	27.4600	0.0100	0.0000	0.0000;
	117	1	4.7	0.75	0	0	7	1.0137923	-4.654491	138	1	1.1	0.9	27.4900	0.0100	0.0000	0.0000;
	118	1	0.63	0.22	0	0	7	1.0281398	-8.976583	138	1	1.1	0.9	27.4500	0.0200	0.0000	0.0000;
	119	1	1.95	0.68	0	0	7	1.0163975	-8.70442	138	1	1.1	0.9	27.5400	0.0100	0.0000	0.0000;
	120	1	2.18	0.6	0	0	7	1.0247547	-5.868602	138	1	1.1	0.9	27.4800	0.0100	0.0000	0.0000;
	121	1	0.49	0.16	0	0	7	1.0221353	-6.308827	138	1	1.1	0.9	27.5400	0.0100	0.0000	0.0000;
	122	1	0.92	0.3	0	0	7	1.0242146	-0.746418	138	1	1.1	0.9	27.4700	0.0100	0.0000	0.0000;
	123	1	111.14	79.15	0	0	7	1.0061513	-13.423177	138	1	1.1	0.9	27.4400	0.0100	0.0000	0.0000;
	124	1	0.46	0.09	0	0	7	1.0378097	-7.943878	138	1	1.1	0.9	27.4500	0.0200	0.0000	0.0000;
	125	1	26.8	4.33	0	0	7	1.0225243	-9.856426	138	1	1.1	0.9	27.4700	0.0100	0.0000	0.0000;
	126	1	0	0	0	76.84	7	1.0352994	-2.444048	345	1	1.1	0.9	27.4600	0.0000	0.0000	0.0000;
	127	1	222.5	81.8	0	0	7	1.0269539	-5.369169	138	1	1.1	0.9	27.4800	0.0100	0.0000	0.0000;
	128	1	41.4	6.7	0	0	7	1.0244504	-7.196909	138	1	1.1	0.9	27.4600	0.0100	0.0000	0.0000;
	129	1	37.7	8.26	0	0	7	1.0304784	-19.011627	138	1	1.1	0.9	27.4400	0.0100	0.0000	0.0000;
	130	1	10.3	1.13	0	0	7	1.0227884	-10.747621	138	1	1.1	0.9	27.4500	0.0200	0.0000	0.0000;
	131	1	15.5	2.56	0	0	7	1.0352043	-16.1641	138	1	1.1	0.9	27.4300	0.0100	0.0000	0.0000;
	132	1	100.5	9.37	0	0	7	1.0208398	-11.418891	138	1	1.1	0.9	27.4400	0.0100	0.0000	0.0000;
	133	1	6.3	1.95	0	0	7	1.0242185	-4.916247	138	1	1.1	0.9	27.4600	0.0100	0.0000	0.0000;
	134	1	4.6	0.6	0	0	7	1.0248284	-7.077261	138	1	1.1	0.9	27.4600	0.0100	0.0000	0.0000;
	135	1	21.8	6.7	0	0	7	1.0199411	-7.775494	138	1	1.1	0.9	27.5100	0.0100	0.0000	0.0000;
	136	1	9.5	3.09	0	0	7	1.0246454	-1.200824	138	1	1.1	0.9	27.4900	0.0100	0.0000	0.0000;
	137	1	14.2	2.34	0	0	7	1.0288302	-16.894875	138	1	1.1	0.9	27.4400	0.0100	0.0000	0.0000;
	138	1	14.9	5.3	0	0	7	1.0190875	-7.207088	138	1	1.1	0.9	27.5000	0.0100	0.0000	0.0000;
	139	1	0.48	0.08	0	0	7	1.0355376	-3.234422	138	1	1.1	0.9	27.4600	0.0100	0.0000	0.0000;
	140	1	9.4	1.35	0	0	7	1.0296379	-17.492167	138	1	1.1	0.9	27.4400	0.0100	0.0000	0.0000;
	141	1	18.1	4.97	0	0	7	1.0342354	-17.613456	138	1	1.1	0.9	27.4300	0.0100	0.0000	0.0000;
	142	1	21.46	16.5	0	0	7	1.0235715	-18.774772	138	1	1.1	0.9	27.4400	0.0100	0.0000	0.0000;
	143	1	6.3	0.9	0	0	7	1.0339228	-17.572352	138	1	1.1	0.9	27.4200	0.0100	0.0000	0.0000;
	144	1	68.94	33.9	0	100.8	7	1.0361035	-18.465273	138	1	1.1	0.9	27.4400	0.0100	0.0000	0.0000;
	145	1	1.88	0.38	0	0	7	1.0183737	-14.335278	138	1	1.1	0.9	27.4600	0.0200	0.0000	0.0000;
	146	1	0.96	0.22	0	0	7	1.024069	-14.106964	138	1	1.1	0.9	27.4500	0.0200	0.0000	0.0000;
	147	1	6.5	0.83	0	0	7	1.0263652	-19.336737	138	1	1.1	0.9	27.4400	0.0100	0.0000	0.0000;
	148	1	2.86	0.22	0	0	7	1.0273558	-17.322596	138	1	1.1	0.9	27.4400	0.0200	0.0000	0.0000;
	149	1	9.8	3.54	0	0	7	1.0321019	-17.595789	138	1	1.1	0.9	27.4400	0.0100	0.0000	0.0000;
	150	1	5.2	1.58	0	0	7	1.0307262	-18.853149	138	1	1.1	0.9	27.4700	-0.0000	0.0000	0.0000;
	151	1	6.4	2.03	0	0	7	1.0211007	-11.130863	138	1	1.1	0.9	27.4500	0.0200	0.0000	0.0000;
	152	1	4.07	0.53	0	0	7	1.0283193	-17.111376	138	1	1.1	0.9	27.4400	0.0100	0.0000	0.0000;
	153	1	5.4	1.95	0	0	7	1.0265381	-19.65076	138	1	1.1	0.9	27.4700	0.0000	0.0000	0.0000;
	154	1	5.7	1.73	0	0	7	1.0326501	-12.465369	138	1	1.1	0.9	27.4900	-0.0300	0.0000	0.0000;
	155	1	4.9	1.73	0	36.6	7	1.0307626	-13.454996	138	1	1.1	0.9	27.4900	-0.0300	0.0000	0.0000;
	156	1	4.6	0.75	0	0	7	1.0304511	-16.752469	138	1	1.1	0.9	27.4300	0.0100	0.0000	0.0000;
	157	1	6.3	0.68	0	0	7	1.0237512	-15.875959	138	1	1.1	0.9	27.4400	0.0200	0.0000	0.0000;
	158	1	2.86	0.75	0	0	7	1.0235006	-20.967789	138	1	1.1	0.9	27.4400	0.0100	0.0000	0.0000;
	159	1	2.79	0.98	0	0	7	1.0350268	-16.715546	138	1	1.1	0.9	27.4300	0.0100	0.0000	0.0000;
	160	1	0	0	0	45.83	7	1.0386225	-11.576647	345	1	1.1	0.9	27.4100	0.0100	0.0000	0.0000;
	161	1	11.14	6.62	0	0	7	1.0385311	-14.697859	138	1	1.1	0.9	27.4200	0.0100	0.0000	0.0000;
	162	1	0	0	0	0	7	1.0238628	-24.819294	138	1	1.1	0.9	27.5900	-0.0000	0.0000	0.0000;
	163	1	42.1	12.6	0	0	7	1.0189009	-27.264507	69	1	1.1	0.9	27.5700	-0.0000	0.0000	0.0000;
	164	1	30.2	11.5	0	0	7	1.0095404	-27.873217	69	1	1.1	0.9	27.5400	-0.0000	0.0000	0.0000;
	165	1	0	0	0	0	7	1.0134259	-24.083319	138	1	1.1	0.9	27.5300	-0.0000	0.0000	0.0000;
	166	1	37.9	5.7	0	0	7	1.0190849	-27.31314	69	1	1.1	0.9	27.5500	-0.0000	0.0000	0.0000;
	167	1	25.7	3.24	0	0	7	1.0162719	-27.996859	69	1	1.1	0.9	27.5600	-0.0000	0.0000	0.0000;
	168	1	26.4	5.6	0	0	7	1.0070288	-28.481245	69	1	1.1	0.9	27.5800	-0.0000	0.0000	0.0000;
	169	1	0	0	0	0	7	1.0198031	-25.935223	138	1	1.1	0.9	27.5800	-0.0000	0.0000	0.0000;
	170	1	40.2	11	0	0	7	1.0255017	-27.964901	69	1	1.1	0.9	27.5600	-0.0000	0.0000	0.0000;
	171	1	4.9	1.58	0	0	7	1.0154656	-27.70895	69	1	1.1	0.9	27.5500	-0.0000	0.0000	0.0000;
	172	1	0	0	0	0	7	1.004735	-25.755245	138	1	1.1	0.9	27.5300	-0.0000	0.0000	0.0000;
	173	1	54.7	11.6	0	0	7	1.007324	-27.824013	69	1	1.1	0.9	27.5400	-0.0000	0.0000	0.0000;
	174	1	0	0	0	0	7	1.0198586	-25.573047	138	1	1.1	0.9	27.5900	-0.0000	0.0000	0.0000;
	175	1	43.1	11.7	0	0	7	1.0045898	-28.231907	69	1	1.1	0.9	27.5700	-0.0000	0.0000	0.0000;
	176	1	0	0	0	0	7	1.0095317	-25.039593	138	1	1.1	0.9	27.5300	-0.0000	0.0000	0.0000;
	177	1	76.9	18.75	0	0	7	1.0120652	-27.357591	69	1	1.1	0.9	27.5500	-0.0000	0.0000	0.0000;
	178	1	33.3	10.3	0	140.2	7	1.028912	-28.16171	69	1	1.1	0.9	27.5600	-0.0000	0.0000	0.0000;
	179	1	23.4	7.1	0	0	7	1.0118046	-28.080469	69	1	1.1	0.9	27.5600	-0.0000	0.0000	0.0000;
	180	1	10	2.18	0	0	7	1.021232	-25.487166	69	1	1.1	0.9	27.4900	-0.0000	0.0000	0.0000;
	181	1	17.2	10.58	0	0	7	1.0210098	-25.027415	69	1	1.1	0.9	27.4700	0.0000	0.0000	0.0000;
	182	1	6.4	1.95	0	0	7	1.0183715	-25.676378	69	1	1.1	0.9	27.4800	0.0000	0.0000	0.0000;
	183	1	9.2	3.31	0	0	7	1.0236602	-25.460249	69	1	1.1	0.9	27.4800	0.0000	0.0000	0.0000;
	184	1	5.3	1.28	0	0	7	1.0219001	-25.457192	69	1	1.1	0.9	27.4800	0.0000	0.0000	0.0000;
	185	1	3.89	1.13	0	0	7	1.0292835	-24.287306	69	1	1.1	0.9	27.4700	0.0100	0.0000	0.0000;
	186	1	5.3	0.83	0	0	7	1.0283577	-24.628186	69	1	1.1	0.9	27.4600	0.0100	0.0000	0.0000;
	187	1	16.9	7.94	0	28.6	7	1.023763	-25.437645	69	1	1.1	0.9	27.4900	-0.0000	0.0000	0.0000;
	188	1	0	0	0	0	7	1.0260315	-21.478678	138	1	1.1	0.9	27.4200	0.0100	0.0000	0.0000;
	189	1	7.9	1.2	0	0	7	1.0337614	-24.606566	69	1	1.1	0.9	27.4500	0.0100	0.0000	0.0000;
	190	1	0	0	0	0	7	1.0274858	-22.137851	18	1	1.1	0.9	27.4200	0.0100	0.0000	0.0000;
	191	1	0	0	0	0	7	1.0274858	-22.137851	1	1	1.1	0.9	27.4200	0.0100	0.0000	0.0000;
	192	1	6.4	1.58	0	0	7	1.0216758	-25.412298	69	1	1.1	0.9	27.4900	-0.0000	0.0000	0.0000;
	193	1	5.7	1.43	0	0	7	1.0198251	-25.04627	69	1	1.1	0.9	27.4800	0.0000	0.0000	0.0000;
	194	1	3.61	0.15	0	93.3	7	1.0270579	-25.501707	69	1	1.1	0.9	27.4800	0.0000	0.0000	0.0000;
	195	1	4.8	1.5	0	0	7	1.0323061	-25.426055	69	1	1.1	0.9	27.4800	0.0000	0.0000	0.0000;
	196	1	2.41	0.53	0	0	7	1.0253178	-25.435054	69	1	1.1	0.9	27.4800	0.0000	0.0000	0.0000;
	197	1	8	2.71	0	0	7	1.0210061	-24.94877	69	1	1.1	0.9	27.4800	0.0000	0.0000	0.0000;
	198	1	16.1	8.28	0	0	7	1.0179648	-25.223755	69	1	1.1	0.9	27.4800	-0.0000	0.0000	0.0000;
	199	1	4.8	1.5	0	0	7	1.0296429	-24.712413	69	1	1.1	0.9	27.4600	0.0100	0.0000	0.0000;
	200	1	7.3	2.11	0	0	7	1.0207218	-25.387166	69	1	1.1	0.9	27.4800	0.0000	0.0000	0.0000;
...
];

%% generator data
%	bus	Pg	Qg	Qmax	Qmin	Vg	mBase	status	Pmax	Pmin	Pc1	Pc2	Qc1min	Qc1max	Qc2min	Qc2max	ramp_agc	ramp_10	ramp_30	ramp_q	apf	mu_Pmax	mu_Pmin	mu_Qmax	mu_Qmin
mpc.gen = [
	1179	643.52	1.54	379.71	-250.07	1.0385	895.2	1	746	87.52	0	0	0	0	0	0	0	0	0	0	746	0.0000	0.0000	0.0000	0.0000;
	1180	630.21	1.54	381.24	-231.35	1.0373	898.8	1	749	303.73	0	0	0	0	0	0	0	0	0	0	749	0.0000	0.0000	0.0000	0.0000;
	1182	46.58	21.81	27.49	-15.8	1.04	64.8	1	54	15.73	0	0	0	0	0	0	0	0	0	0	54	0.0000	0.0000	0.0000	0.0000;
	1183	23.42	27.49	27.49	-18.36	1.04	64.8	1	54	6.3	0	0	0	0	0	0	0	0	0	0	54	0.0000	0.0000	0.0000	0.0000;
	1184	46.58	22.62	27.49	-16.92	1.04	64.8	1	54	23.18	0	0	0	0	0	0	0	0	0	0	54	0.0000	0.0000	0.0000	0.0000;
	1185	43.13	21.28	25.45	-14.5	1.04	60	1	50	23.19	0	0	0	0	0	0	0	0	0	0	50	0.0000	0.0000	0.0000	0.0000;
	1186	55.21	28.68	32.58	-17.09	1.04	76.8	1	64	21.89	0	0	0	0	0	0	0	0	0	0	64	0.0000	0.0000	0.0000	0.0000;
	1187	43.4	17.2	27.49	-18.67	1.04	64.8	1	54	26.28	0	0	0	0	0	0	0	0	0	0	54	0.0000	0.0000	0.0000	0.0000;
	1189	60.57	5.9	52.94	-32.25	1.04	124.8	1	104	27.6	0	0	0	0	0	0	0	0	0	0	104	0.0000	0.0000	0.0000	0.0000;
	1190	81.41	8.33	52.94	-33.75	1.04	124.8	1	104	48.44	0	0	0	0	0	0	0	0	0	0	104	0.0000	0.0000	0.0000	0.0000;
	1191	49.17	10.12	29.01	-16.93	1.04	68.4	1	57	20.52	0	0	0	0	0	0	0	0	0	0	57	0.0000	0.0000	0.0000	0.0000;
	1192	32.72	6.75	29.01	-15.98	1.04	68.4	1	57	14.65	0	0	0	0	0	0	0	0	0	0	57	0.0000	0.0000	0.0000	0.0000;
	1193	49.17	8.94	29.01	-16.85	1.04	68.4	1	57	28.41	0	0	0	0	0	0	0	0	0	0	57	0.0000	0.0000	0.0000	0.0000;
	1194	49.17	5.73	29.01	-16.91	1.04	68.4	1	57	24.09	0	0	0	0	0	0	0	0	0	0	57	0.0000	0.0000	0.0000	0.0000;
	1195	49.17	7.51	29.01	-15.26	1.04	68.4	1	57	14.15	0	0	0	0	0	0	0	0	0	0	57	0.0000	0.0000	0.0000	0.0000;
	1196	49.17	5.05	29.01	-18.09	1.04	68.4	1	57	13.05	0	0	0	0	0	0	0	0	0	0	57	0.0000	0.0000	0.0000	0.0000;
	1197	49.17	5.02	29.01	-17.45	1.04	68.4	1	57	13.03	0	0	0	0	0	0	0	0	0	0	57	0.0000	0.0000	0.0000	0.0000;
	1198	43.14	4.83	29.01	-18.57	1.04	68.4	1	57	25.07	0	0	0	0	0	0	0	0	0	0	57	0.0000	0.0000	0.0000	0.0000;
	1199	44.26	7.35	29.52	-15.64	1.04	69.6	1	58	25.87	0	0	0	0	0	0	0	0	0	0	58	0.0000	0.0000	0.0000	0.0000;
	1200	50.03	4.64	29.52	-14.74	1.04	69.6	1	58	25.9	0	0	0	0	0	0	0	0	0	0	58	0.0000	0.0000	0.0000	0.0000;
	1201	50.03	5.57	29.52	-16.54	1.04	69.6	1	58	10.82	0	0	0	0	0	0	0	0	0	0	58	0.0000	0.0000	0.0000	0.0000;
	1202	50.03	8.9	29.52	-15.65	1.04	69.6	1	58	8.97	0	0	0	0	0	0	0	0	0	0	58	0.0000	0.0000	0.0000	0.0000;
	1203	36.08	7.07	29.52	-16.45	1.04	69.6	1	58	17.69	0	0	0	0	0	0	0	0	0	0	58	0.0000	0.0000	0.0000	0.0000;
	1204	45.14	7.16	29.52	-19.79	1.04	69.6	1	58	26.75	0	0	0	0	0	0	0	0	0	0	58	0.0000	0.0000	0.0000	0.0000;
	1207	572.78	3.33	309.42	-167.63	1.0385	796.8	1	664	149.2	0	0	0	0	0	0	0	0	0	0	664	0.0000	0.0000	0.0000	0.0000;
	1208	571.92	3.33	308.96	-223.78	1.0385	795.6	1	663	76.51	0	0	0	0	0	0	0	0	0	0	663	0.0000	0.0000	0.0000	0.0000;
	1211	476.17	3.33	280.97	-182.79	1.038	662.4	1	552	165.98	0	0	0	0	0	0	0	0	0	0	552	0.0000	0.0000	0.0000	0.0000;
	1212	235.5	3.33	138.96	-70.38	1.0403	327.6	1	273	34.5	0	0	0	0	0	0	0	0	0	0	273	0.0000	0.0000	0.0000	0.0000;
	1213	145.78	0.45	86.02	-58.46	1.04	202.8	1	169	44.2	0	0	0	0	0	0	0	0	0	0	169	0.0000	0.0000	0.0000	0.0000;
	1214	145.78	3.33	86.02	-49.07	1.0408	202.8	1	169	29.81	0	0	0	0	0	0	0	0	0	0	169	0.0000	0.0000	0.0000	0.0000;
	1216	1104.16	65.3	471.04	-365.47	1.042	1536	1	1280	201.18	0	0	0	0	0	0	0	0	0	0	1280	0.0000	0.0000	0.0000	0.0000;
	1217	1104.16	65.3	471.04	-382.86	1.0413	1536	1	1280	178.29	0	0	0	0	0	0	0	0	0	0	1280	0.0000	0.0000	0.0000	0.0000;
	1219	60.57	13.1	41.23	-21.32	1.04	97.2	1	81	34.89	0	0	0	0	0	0	0	0	0	0	81	0.0000	0.0000	0.0000	0.0000;
	1220	69.87	14.04	41.23	-21.95	1.04	97.2	1	81	13.8	0	0	0	0	0	0	0	0	0	0	81	0.0000	0.0000	0.0000	0.0000;
	1230	64.7	20.26	38.17	-25.11	1.04	90	1	75	20.03	0	0	0	0	0	0	0	0	0	0	75	0.0000	0.0000	0.0000	0.0000;
	1231	31.27	19.91	38.17	-25.04	1.04	90	1	75	7.5	0	0	0	0	0	0	0	0	0	0	75	0.0000	0.0000	0.0000	0.0000;
	1232	64.7	13.21	38.17	-22.4	1.04	90	1	75	27.46	0	0	0	0	0	0	0	0	0	0	75	0.0000	0.0000	0.0000	0.0000;
	1233	43.08	18.53	38.17	-20.5	1.04	90	1	75	19.31	0	0	0	0	0	0	0	0	0	0	75	0.0000	0.0000	0.0000	0.0000;
	1236	30.86	19.3	21.63	-10.78	1.04	51	1	42.5	17.39	0	0	0	0	0	0	0	0	0	0	42.5	0.0000	0.0000	0.0000	0.0000;
	1245	112.76	71.15	71.26	-39.11	1.04	168	1	140	68.38	0	0	0	0	0	0	0	0	0	0	140	0.0000	0.0000	0.0000	0.0000;
	1246	77.64	43	45.81	-22.96	1.04	108	1	90	36.59	0	0	0	0	0	0	0	0	0	0	90	0.0000	0.0000	0.0000	0.0000;
	1250	56.93	14.96	33.59	-22.39	1.04	79.2	1	66	12.15	0	0	0	0	0	0	0	0	0	0	66	0.0000	0.0000	0.0000	0.0000;
	1251	41.15	15.36	33.59	-20.06	1.04	79.2	1	66	20.23	0	0	0	0	0	0	0	0	0	0	66	0.0000	0.0000	0.0000	0.0000;
	1252	38.91	14.88	31.56	-19.86	1.04	74.4	1	62	19.26	0	0	0	0	0	0	0	0	0	0	62	0.0000	0.0000	0.0000	0.0000;
	1253	59.52	13.18	35.12	-18.26	1.04	82.8	1	69	10.92	0	0	0	0	0	0	0	0	0	0	69	0.0000	0.0000	0.0000	0.0000;
	1259	47.8	35.12	35.12	-22.98	1.04	82.8	1	69	25.93	0	0	0	0	0	0	0	0	0	0	69	0.0000	0.0000	0.0000	0.0000;
	1265	46.04	10.4	31.07	-29.29	1.04	54	1	90	6.4	0	0	0	0	0	0	0	0	0	0	45	0.0000	0.0000	0.0000	0.0000;
	1266	64.7	32.49	38.17	-20.63	1.04	90	1	75	24.7	0	0	0	0	0	0	0	0	0	0	75	0.0000	0.0000	0.0000	0.0000;
	1267	60.38	23.38	35.63	-18.38	1.04	84	1	70	34.86	0	0	0	0	0	0	0	0	0	0	70	0.0000	0.0000	0.0000	0.0000;
	1269	96.97	55.14	61.13	-37.48	1.0565	144.12	1	120.1	58.9	0	0	0	0	0	0	0	0	0	0	120.1	0.0000	0.0000	0.0000	0.0000;
	1270	52.29	9.85	35.12	-17.45	1.04	82.8	1	69	30.42	0	0	0	0	0	0	0	0	0	0	69	0.0000	0.0000	0.0000	0.0000;
	1271	60.21	7.44	35.53	-23.45	1.04	83.76	1	69.8	32.31	0	0	0	0	0	0	0	0	0	0	69.8	0.0000	0.0000	0.0000	0.0000;
	1272	33.42	25.35	35.53	-24.08	1.04	83.76	1	69.8	11.29	0	0	0	0	0	0	0	0	0	0	69.8	0.0000	0.0000	0.0000	0.0000;
	1273	42.19	4.94	35.68	-18.43	1.04	84.12	1	70.1	19.97	0	0	0	0	0	0	0	0	0	0	70.1	0.0000	0.0000	0.0000	0.0000;
	1274	60.38	14.82	35.63	-20.08	1.04	84	1	70	8.34	0	0	0	0	0	0	0	0	0	0	70	0.0000	0.0000	0.0000	0.0000;
	1275	59	6.72	34.82	-17.9	1.04	82.08	1	68.4	21.65	0	0	0	0	0	0	0	0	0	0	68.4	0.0000	0.0000	0.0000	0.0000;
	1279	86.32	7.44	70.75	-35.41	1.04	166.8	1	139	42.26	0	0	0	0	0	0	0	0	0	0	139	0.0000	0.0000	0.0000	0.0000;
	1280	89.71	7.12	52.94	-26.52	1.04	124.8	1	104	37.35	0	0	0	0	0	0	0	0	0	0	104	0.0000	0.0000	0.0000	0.0000;
	1281	89.71	7.08	52.94	-29.59	1.04	124.8	1	104	32.22	0	0	0	0	0	0	0	0	0	0	104	0.0000	0.0000	0.0000	0.0000;
	1282	89.71	6	52.94	-28.22	1.04	124.8	1	104	13.48	0	0	0	0	0	0	0	0	0	0	104	0.0000	0.0000	0.0000	0.0000;
	1285	53.44	8.86	48.66	-32.33	1.04	114.72	1	95.6	23.14	0	0	0	0	0	0	0	0	0	0	95.6	0.0000	0.0000	0.0000	0.0000;
	1286	63.17	5.02	48.66	-24.43	1.04	114.72	1	95.6	32.87	0	0	0	0	0	0	0	0	0	0	95.6	0.0000	0.0000	0.0000	0.0000;
	1287	82.12	4.49	48.46	-26.93	1.04	114.24	1	95.2	46.3	0	0	0	0	0	0	0	0	0	0	95.2	0.0000	0.0000	0.0000	0.0000;
	1288	48.08	4.69	34.76	-19.32	1.04	81.96	1	68.3	26.43	0	0	0	0	0	0	0	0	0	0	68.3	0.0000	0.0000	0.0000	0.0000;
	1289	55.01	4.18	34.76	-18.6	1.04	81.96	1	68.3	33.36	0	0	0	0	0	0	0	0	0	0	68.3	0.0000	0.0000	0.0000	0.0000;
	1291	51.07	7.14	30.13	-19.35	1.04	71.04	1	59.2	24.7	0	0	0	0	0	0	0	0	0	0	59.2	0.0000	0.0000	0.0000	0.0000;
	1294	59.52	18.58	35.12	-18.16	1.04	82.8	1	69	16.48	0	0	0	0	0	0	0	0	0	0	69	0.0000	0.0000	0.0000	0.0000;
	1295	59.52	7.52	35.12	-21.25	1.04	82.8	1	69	22.97	0	0	0	0	0	0	0	0	0	0	69	0.0000	0.0000	0.0000	0.0000;
	1300	79.64	9.41	81.44	-54.23	1.04	192	1	160	28.92	0	0	0	0	0	0	0	0	0	0	160	0.0000	0.0000	0.0000	0.0000;
	1301	62.97	6.35	37.16	-21.88	1.04	87.6	1	73	30.33	0	0	0	0	0	0	0	0	0	0	73	0.0000	0.0000	0.0000	0.0000;
	1302	43.91	7	37.16	-24.81	1.04	87.6	1	73	20.77	0	0	0	0	0	0	0	0	0	0	73	0.0000	0.0000	0.0000	0.0000;
	1303	62.97	5.67	37.16	-21.09	1.04	87.6	1	73	24.52	0	0	0	0	0	0	0	0	0	0	73	0.0000	0.0000	0.0000	0.0000;
	1305	60.88	0.99	55.48	-36.09	1.04	130.8	1	109	26.33	0	0	0	0	0	0	0	0	0	0	109	0.0000	0.0000	0.0000	0.0000;
	1306	94.03	55.48	55.48	-30.52	1.0569	130.8	1	109	27.46	0	0	0	0	0	0	0	0	0	0	109	0.0000	0.0000	0.0000	0.0000;
	1307	81.45	1.46	55.48	-34.66	1.04	130.8	1	109	46.9	0	0	0	0	0	0	0	0	0	0	109	0.0000	0.0000	0.0000	0.0000;
	1308	94.03	1.39	55.48	-37.92	1.04	130.8	1	109	47.78	0	0	0	0	0	0	0	0	0	0	109	0.0000	0.0000	0.0000	0.0000;
	1311	69.13	19.89	83.99	-47.1	1.04	198	1	165	16.83	0	0	0	0	0	0	0	0	0	0	165	0.0000	0.0000	0.0000	0.0000;
	1312	142.33	-6.92	83.99	-51.29	1.0352	198	1	165	49.54	0	0	0	0	0	0	0	0	0	0	165	0.0000	0.0000	0.0000	0.0000;
	1313	142.33	-6.92	83.99	-53.86	1.0338	198	1	165	71.73	0	0	0	0	0	0	0	0	0	0	165	0.0000	0.0000	0.0000	0.0000;
	1314	142.33	-6.92	83.99	-47.67	1.036	198	1	165	58.52	0	0	0	0	0	0	0	0	0	0	165	0.0000	0.0000	0.0000	0.0000;
	1315	51.76	7.14	30.54	-16.52	1.04	72	1	60	8.55	0	0	0	0	0	0	0	0	0	0	60	0.0000	0.0000	0.0000	0.0000;
	1317	89.29	9.48	82.46	-48.35	1.04	194.4	1	162	37.94	0	0	0	0	0	0	0	0	0	0	162	0.0000	0.0000	0.0000	0.0000;
	1318	139.75	-31.65	82.46	-46.29	1.0282	194.4	1	162	69.97	0	0	0	0	0	0	0	0	0	0	162	0.0000	0.0000	0.0000	0.0000;
	1319	140.61	12.26	82.97	-54.72	1.04	195.6	1	163	59.93	0	0	0	0	0	0	0	0	0	0	163	0.0000	0.0000	0.0000	0.0000;
	1320	93.38	14.25	81.95	-42.94	1.04	193.2	1	161	42.35	0	0	0	0	0	0	0	0	0	0	161	0.0000	0.0000	0.0000	0.0000;
	1321	117.32	8.44	69.22	-34.05	1.04	163.2	1	136	63.29	0	0	0	0	0	0	0	0	0	0	136	0.0000	0.0000	0.0000	0.0000;
	1323	150.56	109.43	109.43	-65.43	1.0598	258	1	215	82.41	0	0	0	0	0	0	0	0	0	0	215	0.0000	0.0000	0.0000	0.0000;
	1324	159.59	6.73	94.16	-54.86	1.04	222	1	185	90.78	0	0	0	0	0	0	0	0	0	0	185	0.0000	0.0000	0.0000	0.0000;
	1325	159.59	5.88	94.16	-53.28	1.04	222	1	185	44.07	0	0	0	0	0	0	0	0	0	0	185	0.0000	0.0000	0.0000	0.0000;
	1326	157.86	5.59	93.15	-46.34	1.04	219.6	1	183	66.98	0	0	0	0	0	0	0	0	0	0	183	0.0000	0.0000	0.0000	0.0000;
	1329	64.7	21.75	38.17	-21.38	1.04	90	1	75	9.54	0	0	0	0	0	0	0	0	0	0	75	0.0000	0.0000	0.0000	0.0000;
	1332	110.38	-0.43	139.97	-95.08	1.04	330	1	275	110.38	0	0	0	0	0	0	0	0	0	0	275	0.0000	0.0000	0.0000	0.0000;
	1333	150.96	0.26	89.07	-45.43	1.04	210	1	175	74.33	0	0	0	0	0	0	0	0	0	0	175	0.0000	0.0000	0.0000	0.0000;
	1335	121.52	0.46	89.07	-50.6	1.04	210	1	175	38.81	0	0	0	0	0	0	0	0	0	0	175	0.0000	0.0000	0.0000	0.0000;
	1338	166.49	57.01	98.24	-62.61	1.0521	231.6	1	193	95.32	0	0	0	0	0	0	0	0	0	0	193	0.0000	0.0000	0.0000	0.0000;
	1339	123.45	3.44	84.49	-50.27	1.04	199.2	1	166	37.65	0	0	0	0	0	0	0	0	0	0	166	0.0000	0.0000	0.0000	0.0000;
	1340	143.2	57.01	84.49	-54.88	1.053	199.2	1	166	44.21	0	0	0	0	0	0	0	0	0	0	166	0.0000	0.0000	0.0000	0.0000;
	1342	32.78	9.43	19.34	-11.83	1.04	45.6	1	38	10.31	0	0	0	0	0	0	0	0	0	0	38	0.0000	0.0000	0.0000	0.0000;
	1343	49.9	6.17	38.68	-20.91	1.04	45.6	1	76	18.13	0	0	0	0	0	0	0	0	0	0	38	0.0000	0.0000	0.0000	0.0000;
	1344	32.78	19.34	19.34	-10.52	1.04	45.6	1	38	6.14	0	0	0	0	0	0	0	0	0	0	38	0.0000	0.0000	0.0000	0.0000;
	1346	126.9	48.64	143.54	-92.95	1.0522	338.4	1	282	37.51	0	0	0	0	0	0	0	0	0	0	282	0.0000	0.0000	0.0000	0.0000;
	1347	77.92	7.12	86.43	-52.35	1.04	203.76	1	169.8	24.1	0	0	0	0	0	0	0	0	0	0	169.8	0.0000	0.0000	0.0000	0.0000;
	1348	74.45	10.24	86.43	-49.18	1.04	203.76	1	169.8	20.63	0	0	0	0	0	0	0	0	0	0	169.8	0.0000	0.0000	0.0000	0.0000;
	1349	89.28	8.69	86.43	-44.44	1.04	203.76	1	169.8	35.46	0	0	0	0	0	0	0	0	0	0	169.8	0.0000	0.0000	0.0000	0.0000;
	1350	146.47	12.87	86.43	-47.08	1.04	203.76	1	169.8	32.88	0	0	0	0	0	0	0	0	0	0	169.8	0.0000	0.0000	0.0000	0.0000;
	1351	115.44	48.64	78.79	-53.15	1.0573	185.76	1	154.8	66.37	0	0	0	0	0	0	0	0	0	0	154.8	0.0000	0.0000	0.0000	0.0000;
	1353	64.7	11	38.17	-20.54	1.04	90	1	75	9.55	0	0	0	0	0	0	0	0	0	0	75	0.0000	0.0000	0.0000	0.0000;
	1354	89.14	7.81	80.42	-43.08	1.04	189.6	1	158	39.06	0	0	0	0	0	0	0	0	0	0	158	0.0000	0.0000	0.0000	0.0000;
	1355	94.31	80.42	80.42	-51.16	1.0595	189.6	1	158	44.23	0	0	0	0	0	0	0	0	0	0	158	0.0000	0.0000	0.0000	0.0000;
	1356	71.4	13.06	80.42	-45.23	1.04	189.6	1	158	21.32	0	0	0	0	0	0	0	0	0	0	158	0.0000	0.0000	0.0000	0.0000;
	1357	56.63	8.17	38.17	-19.95	1.04	90	1	75	32.86	0	0	0	0	0	0	0	0	0	0	75	0.0000	0.0000	0.0000	0.0000;
	1359	90.05	61.08	86.22	-56.22	1.0629	203.28	1	169.4	36.35	0	0	0	0	0	0	0	0	0	0	169.4	0.0000	0.0000	0.0000	0.0000;
	1360	43.13	9.96	25.45	-16.43	1.04	60	1	50	22.87	0	0	0	0	0	0	0	0	0	0	50	0.0000	0.0000	0.0000	0.0000;
	1363	84.54	-0.12	49.88	-32.77	1.04	117.6	1	98	44.23	0	0	0	0	0	0	0	0	0	0	98	0.0000	0.0000	0.0000	0.0000;
	1364	84.54	-0.05	49.88	-24.97	1.04	117.6	1	98	33.19	0	0	0	0	0	0	0	0	0	0	98	0.0000	0.0000	0.0000	0.0000;
	1365	62.11	-0.03	36.65	-24.55	1.04	86.4	1	72	8.33	0	0	0	0	0	0	0	0	0	0	72	0.0000	0.0000	0.0000	0.0000;
	1366	62.11	-0.07	36.65	-22.87	1.04	86.4	1	72	25.74	0	0	0	0	0	0	0	0	0	0	72	0.0000	0.0000	0.0000	0.0000;
	1367	62.11	-0.03	36.65	-18.19	1.04	86.4	1	72	13.5	0	0	0	0	0	0	0	0	0	0	72	0.0000	0.0000	0.0000	0.0000;
	1368	32.95	-0.09	36.65	-20.12	1.04	86.4	1	72	10.13	0	0	0	0	0	0	0	0	0	0	72	0.0000	0.0000	0.0000	0.0000;
	1371	148.37	85.65	87.55	-59.49	1.0577	206.4	1	172	74.41	0	0	0	0	0	0	0	0	0	0	172	0.0000	0.0000	0.0000	0.0000;
	1372	142.33	-0.24	83.99	-46.18	1.04	198	1	165	22.41	0	0	0	0	0	0	0	0	0	0	165	0.0000	0.0000	0.0000	0.0000;
	1373	119.1	-0.89	83.99	-56.58	1.04	198	1	165	66.8	0	0	0	0	0	0	0	0	0	0	165	0.0000	0.0000	0.0000	0.0000;
	1377	41.41	24.43	24.43	-15.32	1.04	57.6	1	48	6.91	0	0	0	0	0	0	0	0	0	0	48	0.0000	0.0000	0.0000	0.0000;
	1381	63.83	37.67	37.67	-25.1	1.04	88.8	1	74	12.81	0	0	0	0	0	0	0	0	0	0	74	0.0000	0.0000	0.0000	0.0000;
	1385	54.82	35.63	35.63	-18.52	1.04	84	1	70	32.63	0	0	0	0	0	0	0	0	0	0	70	0.0000	0.0000	0.0000	0.0000;
	1389	407.59	14.18	240.5	-150.94	1.0408	567	1	472.5	220.95	0	0	0	0	0	0	0	0	0	0	472.5	0.0000	0.0000	0.0000	0.0000;
	1390	156.62	14.18	168.94	-87.16	1.044	398.28	1	331.9	51.41	0	0	0	0	0	0	0	0	0	0	331.9	0.0000	0.0000	0.0000	0.0000;
	1391	289.24	14.18	170.67	-111.17	1.0421	402.36	1	335.3	156.21	0	0	0	0	0	0	0	0	0	0	335.3	0.0000	0.0000	0.0000	0.0000;
	1394	24.4	4.25	27.49	-14.83	1.04	64.8	1	54	7.28	0	0	0	0	0	0	0	0	0	0	54	0.0000	0.0000	0.0000	0.0000;
	1395	46.58	6.88	27.49	-17.42	1.04	64.8	1	54	10.18	0	0	0	0	0	0	0	0	0	0	54	0.0000	0.0000	0.0000	0.0000;
	1396	46.58	6.6	27.49	-13.9	1.04	64.8	1	54	19.57	0	0	0	0	0	0	0	0	0	0	54	0.0000	0.0000	0.0000	0.0000;
	1397	46.58	3.9	27.49	-16.97	1.04	64.8	1	54	24.34	0	0	0	0	0	0	0	0	0	0	54	0.0000	0.0000	0.0000	0.0000;
	1398	32.11	8.86	27.49	-14.33	1.04	64.8	1	54	14.99	0	0	0	0	0	0	0	0	0	0	54	0.0000	0.0000	0.0000	0.0000;
	1399	46.58	8.37	27.49	-15.98	1.04	64.8	1	54	18.36	0	0	0	0	0	0	0	0	0	0	54	0.0000	0.0000	0.0000	0.0000;
	1401	77.64	22.9	45.8	-27.97	1.04	54	1	90	13.77	0	0	0	0	0	0	0	0	0	0	45	0.0000	0.0000	0.0000	0.0000;
	1403	100.93	49.09	59.55	-31.47	1.0395	140.4	1	117	41.9	0	0	0	0	0	0	0	0	0	0	117	0.0000	0.0000	0.0000	0.0000;
	1848	41.1	9.19	46.82	-26.63	1.04	55.2	1	92	4.6	0	0	0	0	0	0	0	0	0	0	46	0.0000	0.0000	0.0000	0.0000;
	1850	39.68	21.69	23.41	-12.46	1.04	55.2	1	46	7.55	0	0	0	0	0	0	0	0	0	0	46	0.0000	0.0000	0.0000	0.0000;
	1852	317.64	22.21	213.78	-117.09	1.0439	504	1	420	184.51	0	0	0	0	0	0	0	0	0	0	420	0.0000	0.0000	0.0000	0.0000;
	1853	353.68	22.21	208.69	-111.76	1.0431	492	1	410	112.96	0	0	0	0	0	0	0	0	0	0	410	0.0000	0.0000	0.0000	0.0000;
	1856	56.47	-0.35	48.86	-25.97	1.04	57.6	1	96	12.14	0	0	0	0	0	0	0	0	0	0	48	0.0000	0.0000	0.0000	0.0000;
	1857	81.95	-0.16	48.35	-28.09	1.04	57.6	1	95	17.18	0	0	0	0	0	0	0	0	0	0	48	0.0000	0.0000	0.0000	0.0000;
	1858	258.86	-30.92	209.71	-105.73	1.032	494.4	1	412	57.33	0	0	0	0	0	0	0	0	0	0	412	0.0000	0.0000	0.0000	0.0000;
	1859	156.57	-0.28	117.07	-74.42	1.04	276	1	230	83.66	0	0	0	0	0	0	0	0	0	0	230	0.0000	0.0000	0.0000	0.0000;
	1860	117.6	-30.92	110.45	-55.78	1.0333	260.4	1	217	48.81	0	0	0	0	0	0	0	0	0	0	217	0.0000	0.0000	0.0000	0.0000;
	1863	13.89	0.03	8.56	-5.75	1.04	10.08	1	16.8	2.73	0	0	0	0	0	0	0	0	0	0	8.4	0.0000	0.0000	0.0000	0.0000;
	1864	13.54	-2.26	8.56	-5.23	1.04	10.08	1	16.8	3.63	0	0	0	0	0	0	0	0	0	0	8.4	0.0000	0.0000	0.0000	0.0000;
	1865	7.25	0.3	4.28	-2.88	1.04	10.08	1	8.4	1.32	0	0	0	0	0	0	0	0	0	0	8.4	0.0000	0.0000	0.0000	0.0000;
	1866	7.25	0.14	4.28	-2.72	1.04	10.08	1	8.4	2.6	0	0	0	0	0	0	0	0	0	0	8.4	0.0000	0.0000	0.0000	0.0000;
	1867	7.25	0.23	4.28	-2.31	1.04	10.08	1	8.4	3.04	0	0	0	0	0	0	0	0	0	0	8.4	0.0000	0.0000	0.0000	0.0000;
	1868	14.5	-2.26	8.56	-4.73	1.04	10.08	1	16.8	2.48	0	0	0	0	0	0	0	0	0	0	8.4	0.0000	0.0000	0.0000	0.0000;
	1869	12.1	0.09	8.56	-5.27	1.04	10.08	1	16.8	2.19	0	0	0	0	0	0	0	0	0	0	8.4	0.0000	0.0000	0.0000	0.0000;
	1870	13.27	-2.88	8.56	-5.33	1.04	10.08	1	16.8	1.47	0	0	0	0	0	0	0	0	0	0	8.4	0.0000	0.0000	0.0000	0.0000;
	1871	14.5	0.12	8.56	-4.41	1.04	10.08	1	16.8	1.35	0	0	0	0	0	0	0	0	0	0	8.4	0.0000	0.0000	0.0000	0.0000;
	1872	11.25	-1.86	8.56	-5.25	1.04	10.08	1	16.8	3.46	0	0	0	0	0	0	0	0	0	0	8.4	0.0000	0.0000	0.0000	0.0000;
	1873	10.31	-2.32	8.56	-4.84	1.04	10.08	1	16.8	1.71	0	0	0	0	0	0	0	0	0	0	8.4	0.0000	0.0000	0.0000	0.0000;
	1874	12.17	0.05	8.56	-4.98	1.04	10.08	1	16.8	4.12	0	0	0	0	0	0	0	0	0	0	8.4	0.0000	0.0000	0.0000	0.0000;
	1875	3.68	-2.16	4.28	-2.16	1.04	10.08	1	8.4	1.02	0	0	0	0	0	0	0	0	0	0	8.4	0.0000	0.0000	0.0000	0.0000;
	1877	362.3	22.21	195.72	-105.54	1.0428	504	1	420	108.51	0	0	0	0	0	0	0	0	0	0	420	0.0000	0.0000	0.0000	0.0000;
	1880	337.29	-63.48	182.21	-111.75	1.0374	469.2	1	391	136.06	0	0	0	0	0	0	0	0	0	0	391	0.0000	0.0000	0.0000	0.0000;
	1882	677.16	-9.12	365.81	-198.8	1.0374	942	1	785	205.15	0	0	0	0	0	0	0	0	0	0	785	0.0000	0.0000	0.0000	0.0000;
	1883	483.07	-9.12	260.96	-179.17	1.0394	672	1	560	237.11	0	0	0	0	0	0	0	0	0	0	560	0.0000	0.0000	0.0000	0.0000;
	1885	163.9	-1.93	96.71	-57.49	1.04	228	1	190	83.8	0	0	0	0	0	0	0	0	0	0	190	0.0000	0.0000	0.0000	0.0000;
	1886	135.98	-30.92	83.48	-51.26	1.0315	196.8	1	164	30.66	0	0	0	0	0	0	0	0	0	0	164	0.0000	0.0000	0.0000	0.0000;
	1887	141.47	-1.77	83.48	-46.84	1.04	196.8	1	164	75.59	0	0	0	0	0	0	0	0	0	0	164	0.0000	0.0000	0.0000	0.0000;
	1903	11.65	6.24	6.24	-4.6	1.04	16.2	1	13.5	0	0	0	0	0	0	0	0	0	0	0	13.5	0.0000	0.0000	0.0000	0.0000;
	1905	86.09	-28.31	46.15	-34.84	1.04	119.76	1	99.8	0	0	0	0	0	0	0	0	0	0	0	99.8	0.0000	0.0000	0.0000	0.0000;
	1910	8.54	3.33	3.33	-2.48	1.04	11.88	1	9.9	0	0	0	0	0	0	0	0	0	0	0	9.9	0.0000	0.0000	0.0000	0.0000;
	1912	8.54	3.5	3.5	-3.24	1.04	11.88	1	9.9	0	0	0	0	0	0	0	0	0	0	0	9.9	0.0000	0.0000	0.0000	0.0000;
	1915	35.11	16.83	17.1	-10.34	1.04	48.84	1	40.7	0	0	0	0	0	0	0	0	0	0	0	40.7	0.0000	0.0000	0.0000	0.0000;
	1919	34.16	-11.44	18.04	-11.73	1.04	47.52	1	39.6	0	0	0	0	0	0	0	0	0	0	0	39.6	0.0000	0.0000	0.0000	0.0000;
	1923	86.26	-10.1	37.78	-25.81	1.04	120	1	100	0	0	0	0	0	0	0	0	0	0	0	100	0.0000	0.0000	0.0000	0.0000;
	1935	4.56	3.37	3.37	-3.09	1.04	12	1	10	1.39	0	0	0	0	0	0	0	0	0	0	10	0.0000	0.0000	0.0000	0.0000;
	2288	448.84	2.46	289.11	-145.64	1.0294	681.6	1	568	61.95	0	0	0	0	0	0	0	0	0	0	568	0.0000	0.0000	0.0000	0.0000;
	2289	58.12	22.05	60.06	-30.44	1.04	141.6	1	118	20.72	0	0	0	0	0	0	0	0	0	0	118	0.0000	0.0000	0.0000	0.0000;
	2290	105.24	27.49	62.1	-34.94	1.04	146.4	1	122	26.64	0	0	0	0	0	0	0	0	0	0	122	0.0000	0.0000	0.0000	0.0000;
	2293	98.68	8.92	58.23	-34.17	1.04	137.28	1	114.4	52.69	0	0	0	0	0	0	0	0	0	0	114.4	0.0000	0.0000	0.0000	0.0000;
	2296	312.98	-39.24	207.67	-122.73	1.0353	489.6	1	408	183.65	0	0	0	0	0	0	0	0	0	0	408	0.0000	0.0000	0.0000	0.0000;
	2297	351.95	-39.24	207.67	-115.16	1.0358	489.6	1	408	101.43	0	0	0	0	0	0	0	0	0	0	408	0.0000	0.0000	0.0000	0.0000;
	2298	77.69	-0.59	85	-51.81	1.04	200.4	1	167	24.75	0	0	0	0	0	0	0	0	0	0	167	0.0000	0.0000	0.0000	0.0000;
	2299	137.16	0.17	80.93	-41.24	1.04	190.8	1	159	52.33	0	0	0	0	0	0	0	0	0	0	159	0.0000	0.0000	0.0000	0.0000;
	2300	137.16	-1.19	80.93	-49.81	1.04	190.8	1	159	45.96	0	0	0	0	0	0	0	0	0	0	159	0.0000	0.0000	0.0000	0.0000;
	2301	125.69	-0.44	85	-52.72	1.04	200.4	1	167	72.75	0	0	0	0	0	0	0	0	0	0	167	0.0000	0.0000	0.0000	0.0000;
	2302	137.16	-0.46	80.93	-40.36	1.04	190.8	1	159	47.33	0	0	0	0	0	0	0	0	0	0	159	0.0000	0.0000	0.0000	0.0000;
	2303	119.47	-39.24	80.93	-43.59	1.0307	190.8	1	159	69.07	0	0	0	0	0	0	0	0	0	0	159	0.0000	0.0000	0.0000	0.0000;
	2616	44.86	-0.48	26.47	-16.14	1.04	62.4	1	52	15.03	0	0	0	0	0	0	0	0	0	0	52	0.0000	0.0000	0.0000	0.0000;
	2617	39.13	-0.28	26.47	-13.53	1.04	62.4	1	52	22.65	0	0	0	0	0	0	0	0	0	0	52	0.0000	0.0000	0.0000	0.0000;
	2618	31.96	-0.38	26.47	-16.68	1.04	62.4	1	52	15.48	0	0	0	0	0	0	0	0	0	0	52	0.0000	0.0000	0.0000	0.0000;
	2619	44.86	-0.4	26.47	-15.01	1.04	62.4	1	52	22.59	0	0	0	0	0	0	0	0	0	0	52	0.0000	0.0000	0.0000	0.0000;
	2620	230.88	-78.74	205.64	-101.29	1.0257	484.8	1	404	102.82	0	0	0	0	0	0	0	0	0	0	404	0.0000	0.0000	0.0000	0.0000;
	2621	181.47	-78.74	162.88	-94.98	1.0195	384	1	320	80.03	0	0	0	0	0	0	0	0	0	0	320	0.0000	0.0000	0.0000	0.0000;
	2623	14.66	3.15	6.53	-4.96	1.04	9.84	1	17	3.96	0	0	0	0	0	0	0	0	0	0	8.2	0.0000	0.0000	0.0000	0.0000;
	2625	23.29	4.57	10.37	-9.03	1.04	32.4	1	27	5	0	0	0	0	0	0	0	0	0	0	27	0.0000	0.0000	0.0000	0.0000;
	2626	23.29	4.57	10.37	-8.51	1.04	32.4	1	27	3.61	0	0	0	0	0	0	0	0	0	0	27	0.0000	0.0000	0.0000	0.0000;
	2632	17.08	1.44	7.6	-6.23	1.04	23.76	1	19.8	3.25	0	0	0	0	0	0	0	0	0	0	19.8	0.0000	0.0000	0.0000	0.0000;
	2633	17.08	1.44	7.6	-5.86	1.04	23.76	1	19.8	9.12	0	0	0	0	0	0	0	0	0	0	19.8	0.0000	0.0000	0.0000	0.0000;
	2639	31.05	4.17	13.82	-12.06	1.04	43.2	1	36	10.71	0	0	0	0	0	0	0	0	0	0	36	0.0000	0.0000	0.0000	0.0000;
	2640	62.1	2.25	27.64	-22.69	1.04	43.2	1	72	6.42	0	0	0	0	0	0	0	0	0	0	36	0.0000	0.0000	0.0000	0.0000;
	2644	117.32	3.23	69.22	-34.67	1.04	163.2	1	136	66.98	0	0	0	0	0	0	0	0	0	0	136	0.0000	0.0000	0.0000	0.0000;
	2645	117.32	3.1	69.22	-37.07	1.04	163.2	1	136	17.25	0	0	0	0	0	0	0	0	0	0	136	0.0000	0.0000	0.0000	0.0000;
...
];

%% branch data
%	fbus	tbus	r	x	b	rateA	rateB	rateC	ratio	angle	status	angmin	angmax	Pf	Qf	Pt	Qt	mu_Sf	mu_St	mu_angmin	mu_angmax
mpc.branch = [
	1	4	0.00144	0.04775	0	245.7	245.7	245.7	1	0	1	0	0	0.0000	0.0000	0.0000	0.0000	0.0000	0.0000	0.0000	0.0000;
	1	41	0.01608	0.0881	0.05448	227.9	227.9	227.9	0	0	1	0	0	35.3700	-1.2400	-35.1800	-3.5600	0.0000	0.0000	0.0000	0.0000;
	1	113	0.00148	0.00896	0.01119	307.2	307.2	307.2	0	0	1	0	0	-110.2700	28.5200	110.4500	-28.6400	0.0000	0.0000	0.0000	0.0000;
	1	5584	0.01094	0.05109	0.07783	257.2	257.2	257.2	0	0	1	0	0	32.2200	-16.1500	-32.1000	8.3200	0.0000	0.0000	0.0000	0.0000;
	1	6539	0.00616	0.04105	0.01329	271.4	271.4	271.4	0	0	1	0	0	42.4600	-11.2100	-42.3500	10.5100	0.0000	0.0000	0.0000	0.0000;
	2	4	0	0.01	0	10.4	10.4	10.4	1	0	1	0	0	0.0000	0.0000	0.0000	0.0000	0.0000	0.0000	0.0000	0.0000;
	3	4	0	0.01	0	10	10	10	1	0	1	0	0	0.0000	0.0000	0.0000	0.0000	0.0000	0.0000	0.0000	0.0000;
	5	8	0.00117	0.03691	0	243.9	243.9	243.9	1	0	1	0	0	0.0000	0.0000	0.0000	0.0000	0.0000	0.0000	0.0000	0.0000;
	5	65	0.00245	0.013	0.01183	307.4	307.4	307.4	0	0	1	0	0	96.5100	-27.8700	-96.2700	27.8900	0.0000	0.0000	0.0000	0.0000;
	5	1258	0.00259	0.01847	0.02085	300.8	300.8	300.8	0	0	1	0	0	104.8600	-18.8700	-104.5800	18.7000	0.0000	0.0000	0.0000	0.0000;
	5	1362	0.00279	0.01921	0.00978	302.2	302.2	302.2	0	0	1	0	0	-164.5100	-17.5900	165.2400	21.6000	0.0000	0.0000	0.0000	0.0000;
	5	1410	0.0041	0.01508	0.02064	293	293	293	0	0	1	0	0	-116.5600	25.6800	117.1200	-25.7700	0.0000	0.0000	0.0000	0.0000;
	6	8	0	0.01	0	10	10	10	1	0	1	0	0	0.0000	0.0000	0.0000	0.0000	0.0000	0.0000	0.0000	0.0000;
	7	8	0	0.01	0	10	10	10	1	0	1	0	0	0.0000	0.0000	0.0000	0.0000	0.0000	0.0000	0.0000	0.0000;
	9	12	0.00199	0.0599	0	243.4	243.4	243.4	1	0	1	0	0	0.0000	0.0000	0.0000	0.0000	0.0000	0.0000	0.0000	0.0000;
	101	9	0.00362	0.02731	0.03339	290.2	290.2	290.2	0	0	1	0	0	130.9700	2.4300	-130.3900	-1.5900	0.0000	0.0000	0.0000	0.0000;
	9	105	0.00457	0.02293	0.02714	231.6	231.6	231.6	0	0	1	0	0	-17.5000	4.9100	17.5200	-7.7000	0.0000	0.0000	0.0000	0.0000;
	9	121	0.00667	0.03531	0.01496	295.6	295.6	295.6	0	0	1	0	0	142.0000	-5.3500	-140.7200	10.5100	0.0000	0.0000	0.0000	0.0000;
	10	12	0	0.01	0	10	10	10	1	0	1	0	0	0.0000	0.0000	0.0000	0.0000	0.0000	0.0000	0.0000	0.0000;
	11	12	0	0.01	0	10	10	10	1	0	1	0	0	0.0000	0.0000	0.0000	0.0000	0.0000	0.0000	0.0000	0.0000;
	13	16	0.00117	0.03378	0	274.7	274.7	274.7	1	0	1	0	0	0.0000	0.0000	0.0000	0.0000	0.0000	0.0000	0.0000	0.0000;
	123	13	0.00296	0.01839	0.01142	278.3	278.3	278.3	0	0	1	0	0	-74.4100	-17.7100	74.5800	17.6100	0.0000	0.0000	0.0000	0.0000;
	132	13	0.00407	0.02626	0.00541	289.9	289.9	289.9	0	0	1	0	0	90.2200	22.7800	-89.8800	-21.1500	0.0000	0.0000	0.0000	0.0000;
	14	16	0	0.01	0	36.5	36.5	36.5	1	0	1	0	0	0.0000	0.0000	0.0000	0.0000	0.0000	0.0000	0.0000	0.0000;
	15	16	0	0.01	0	10	10	10	1	0	1	0	0	0.0000	0.0000	0.0000	0.0000	0.0000	0.0000	0.0000	0.0000;
	17	20	0.00094	0.03327	0	273.2	273.2	273.2	1	0	1	0	0	0.0000	0.0000	0.0000	0.0000	0.0000	0.0000	0.0000	0.0000;
	17	137	0.00318	0.01804	0.11729	243.3	243.3	243.3	0	0	1	0	0	13.1900	-22.0600	-13.1700	9.7500	0.0000	0.0000	0.0000	0.0000;
	17	157	0.00337	0.0234	0.01262	269.9	269.9	269.9	0	0	1	0	0	-64.4800	20.9400	64.6300	-21.2400	0.0000	0.0000	0.0000	0.0000;
	17	1408	0.00755	0.0389	0.01115	234.6	234.6	234.6	0	0	1	0	0	40.3000	-1.5900	-40.1800	1.0100	0.0000	0.0000	0.0000	0.0000;
	18	20	0	0.01	0	33.8	33.8	33.8	1	0	1	0	0	0.0000	0.0000	0.0000	0.0000	0.0000	0.0000	0.0000	0.0000;
	19	20	0	0.01	0	10	10	10	1	0	1	0	0	0.0000	0.0000	0.0000	0.0000	0.0000	0.0000	0.0000	0.0000;
	21	24	0.00195	0.04935	0	242.9	242.9	242.9	1	0	1	0	0	0.0000	0.0000	0.0000	0.0000	0.0000	0.0000	0.0000	0.0000;
	21	53	0.00461	0.02688	0.0213	242.2	242.2	242.2	0	0	1	0	0	-28.0200	0.1200	28.0500	-2.1600	0.0000	0.0000	0.0000	0.0000;
	21	134	0.00377	0.02279	0.00653	238.7	238.7	238.7	0	0	1	0	0	19.7200	-2.0000	-19.7000	1.4000	0.0000	0.0000	0.0000	0.0000;
	22	24	0	0.01	0	10	10	10	1	0	1	0	0	0.0000	0.0000	0.0000	0.0000	0.0000	0.0000	0.0000	0.0000;
	23	24	0	0.01	0	10	10	10	1	0	1	0	0	0.0000	0.0000	0.0000	0.0000	0.0000	0.0000	0.0000	0.0000;
	25	28	0.00151	0.04917	0	242.8	242.8	242.8	1	0	1	0	0	0.0000	0.0000	0.0000	0.0000	0.0000	0.0000	0.0000	0.0000;
	25	61	0.00302	0.01829	0.01171	208.1	208.1	208.1	0	0	1	0	0	-30.9600	-4.6200	30.9900	3.5500	0.0000	0.0000	0.0000	0.0000;
	134	25	0.00295	0.01943	0.01011	219.6	219.6	219.6	0	0	1	0	0	-23.6400	-3.4600	23.6600	2.5100	0.0000	0.0000	0.0000	0.0000;
	26	28	0	0.01	0	10	10	10	1	0	1	0	0	0.0000	0.0000	0.0000	0.0000	0.0000	0.0000	0.0000	0.0000;
	27	28	0	0.01	0	10	10	10	1	0	1	0	0	0.0000	0.0000	0.0000	0.0000	0.0000	0.0000	0.0000	0.0000;
	29	32	0.00228	0.05634	0	271.1	271.1	271.1	1	0	1	0	0	0.0000	0.0000	0.0000	0.0000	0.0000	0.0000	0.0000	0.0000;
	73	29	0.00574	0.02779	0.02677	301.8	301.8	301.8	0	0	1	0	0	97.1100	-28.6400	-96.5500	28.5000	0.0000	0.0000	0.0000	0.0000;
	29	1362	0.0041	0.01872	0.00734	295.9	295.9	295.9	0	0	1	0	0	88.8500	-30.5300	-88.5100	31.3100	0.0000	0.0000	0.0000	0.0000;
	30	32	0	0.01	0	23.3	23.3	23.3	1	0	1	0	0	0.0000	0.0000	0.0000	0.0000	0.0000	0.0000	0.0000	0.0000;
	31	32	0	0.01	0	10	10	10	1	0	1	0	0	0.0000	0.0000	0.0000	0.0000	0.0000	0.0000	0.0000	0.0000;
	33	36	0.00213	0.05803	0	271	271	271	1	0	1	0	0	0.0000	0.0000	0.0000	0.0000	0.0000	0.0000	0.0000	0.0000;
	121	33	0.00661	0.04155	0.01919	296.2	296.2	296.2	0	0	1	0	0	178.8500	-9.0600	-176.8200	19.8100	0.0000	0.0000	0.0000	0.0000;
	33	719	0.0109	0.06874	0.148	292	292	292	0	0	1	0	0	169.3200	-21.6100	-166.2700	25.5500	0.0000	0.0000	0.0000	0.0000;
	34	36	0	0.01	0	23	23	23	1	0	1	0	0	0.0000	0.0000	0.0000	0.0000	0.0000	0.0000	0.0000	0.0000;
	35	36	0	0.01	0	10	10	10	1	0	1	0	0	0.0000	0.0000	0.0000	0.0000	0.0000	0.0000	0.0000	0.0000;
	37	40	0.00183	0.0594	0	242.1	242.1	242.1	1	0	1	0	0	0.0000	0.0000	0.0000	0.0000	0.0000	0.0000	0.0000	0.0000;
	37	118	0.00252	0.01403	0.00701	277.1	277.1	277.1	0	0	1	0	0	140.0100	7.5800	-139.5400	-5.7300	0.0000	0.0000	0.0000	0.0000;
	124	37	0.00349	0.01674	0.0138	278.8	278.8	278.8	0	0	1	0	0	4.8200	31.3900	-4.7900	-32.7000	0.0000	0.0000	0.0000	0.0000;
	37	5301	0.00354	0.01472	0.09579	279.4	279.4	279.4	0	0	1	0	0	-139.4700	24.4400	140.1400	-31.8600	0.0000	0.0000	0.0000	0.0000;
	38	40	0	0.01	0	10	10	10	1	0	1	0	0	0.0000	0.0000	0.0000	0.0000	0.0000	0.0000	0.0000	0.0000;
	39	40	0	0.01	0	10	10	10	1	0	1	0	0	0.0000	0.0000	0.0000	0.0000	0.0000	0.0000	0.0000	0.0000;
	41	44	0.00159	0.0418	0	241.5	241.5	241.5	1	0	1	0	0	0.0000	0.0000	0.0000	0.0000	0.0000	0.0000	0.0000	0.0000;
	41	61	0.00523	0.03641	0.012	210.5	210.5	210.5	0	0	1	0	0	32.6200	3.0300	-32.5700	-3.9300	0.0000	0.0000	0.0000	0.0000;
	42	44	0	0.01	0	10	10	10	1	0	1	0	0	0.0000	0.0000	0.0000	0.0000	0.0000	0.0000	0.0000	0.0000;
	43	44	0	0.01	0	10	10	10	1	0	1	0	0	0.0000	0.0000	0.0000	0.0000	0.0000	0.0000	0.0000	0.0000;
	45	48	0.00204	0.06034	0	241.1	241.1	241.1	1	0	1	0	0	0.0000	0.0000	0.0000	0.0000	0.0000	0.0000	0.0000	0.0000;
	53	45	0.00429	0.02769	0.02259	286.3	286.3	286.3	0	0	1	0	0	114.0500	-26.6500	-113.4900	27.8500	0.0000	0.0000	0.0000	0.0000;
	45	57	0.00533	0.0283	0.04685	270.9	270.9	270.9	0	0	1	0	0	-59.8200	14.2000	60.0200	-18.1200	0.0000	0.0000	0.0000	0.0000;
	45	118	0.00192	0.008115	0.20212	604.6	604.6	604.6	0	0	1	0	0	85.7900	-21.2900	-85.5200	11.7700	0.0000	0.0000	0.0000	0.0000;
	46	48	0	0.01	0	10	10	10	1	0	1	0	0	0.0000	0.0000	0.0000	0.0000	0.0000	0.0000	0.0000	0.0000;
	47	48	0	0.01	0	10	10	10	1	0	1	0	0	0.0000	0.0000	0.0000	0.0000	0.0000	0.0000	0.0000	0.0000;
	49	52	0.0016	0.04137	0	240.5	240.5	240.5	1	0	1	0	0	0.0000	0.0000	0.0000	0.0000	0.0000	0.0000	0.0000	0.0000;
	49	53	0.00483	0.02832	0.01236	267.1	267.1	267.1	0	0	1	0	0	32.5500	-11.3100	-32.4900	10.3300	0.0000	0.0000	0.0000	0.0000;
	49	57	0.00675	0.03847	0.01338	287.3	287.3	287.3	0	0	1	0	0	60.8900	-17.8500	-60.6300	17.9100	0.0000	0.0000	0.0000	0.0000;
	49	77	0.01119	0.05297	0.03385	270.1	270.1	270.1	0	0	1	0	0	71.8100	-9.9400	-71.2600	9.0300	0.0000	0.0000	0.0000	0.0000;
	133	49	0.00196	0.01009	0.00122	336.6	336.6	336.6	0	0	1	0	0	168.8900	-36.0600	-168.3300	38.8000	0.0000	0.0000	0.0000	0.0000;
	50	52	0	0.01	0	10	10	10	1	0	1	0	0	0.0000	0.0000	0.0000	0.0000	0.0000	0.0000	0.0000	0.0000;
	51	52	0	0.01	0	10	10	10	1	0	1	0	0	0.0000	0.0000	0.0000	0.0000	0.0000	0.0000	0.0000	0.0000;
	53	56	0.00089	0.03289	0	238.6	238.6	238.6	1	0	1	0	0	0.0000	0.0000	0.0000	0.0000	0.0000	0.0000	0.0000	0.0000;
	53	3384	0.01732	0.08203	0.03836	275.3	275.3	275.3	0	0	1	0	0	-113.8600	17.8000	116.0600	-11.4600	0.0000	0.0000	0.0000	0.0000;
	54	56	0	0.01	0	10	10	10	1	0	1	0	0	0.0000	0.0000	0.0000	0.0000	0.0000	0.0000	0.0000	0.0000;
	55	56	0	0.01	0	10	10	10	1	0	1	0	0	0.0000	0.0000	0.0000	0.0000	0.0000	0.0000	0.0000	0.0000;
	57	60	0.00304	0.07351	0	238.1	238.1	238.1	1	0	1	0	0	0.0000	0.0000	0.0000	0.0000	0.0000	0.0000	0.0000	0.0000;
	58	60	0	0.01	0	10	10	10	1	0	1	0	0	0.0000	0.0000	0.0000	0.0000	0.0000	0.0000	0.0000	0.0000;
	59	60	0	0.01	0	10	10	10	1	0	1	0	0	0.0000	0.0000	0.0000	0.0000	0.0000	0.0000	0.0000	0.0000;
	61	64	0.00133	0.04024	0	237.4	237.4	237.4	1	0	1	0	0	0.0000	0.0000	0.0000	0.0000	0.0000	0.0000	0.0000	0.0000;
	62	64	0	0.01	0	10	10	10	1	0	1	0	0	0.0000	0.0000	0.0000	0.0000	0.0000	0.0000	0.0000	0.0000;
	63	64	0	0.01	0	10	10	10	1	0	1	0	0	0.0000	0.0000	0.0000	0.0000	0.0000	0.0000	0.0000	0.0000;
	65	68	0.00119	0.04068	0	236.9	236.9	236.9	1	0	1	0	0	0.0000	0.0000	0.0000	0.0000	0.0000	0.0000	0.0000	0.0000;
	132	65	0.00632	0.02824	0.01618	271.8	271.8	271.8	0	0	1	0	0	40.7300	-17.8200	-40.6100	16.6600	0.0000	0.0000	0.0000	0.0000;
	65	729	0.003315	0.015035	0.1013	723.2	723.2	723.2	0	0	1	0	0	237.7300	-23.5700	-234.1200	34.6700	0.0000	0.0000	0.0000	0.0000;
	1362	65	0.001905	0.012995	0.02512	662	662	662	0	0	1	0	0	171.9700	5.1500	-170.9100	0.7800	0.0000	0.0000	0.0000	0.0000;
	66	68	0	0.01	0	10	10	10	1	0	1	0	0	0.0000	0.0000	0.0000	0.0000	0.0000	0.0000	0.0000	0.0000;
	67	68	0	0.01	0	10	10	10	1	0	1	0	0	0.0000	0.0000	0.0000	0.0000	0.0000	0.0000	0.0000	0.0000;
	69	72	0.00224	0.0727	0	236.4	236.4	236.4	1	0	1	0	0	0.0000	0.0000	0.0000	0.0000	0.0000	0.0000	0.0000	0.0000;
	69	135	0.00661	0.04731	0.01917	270.9	270.9	270.9	0	0	1	0	0	-71.5900	14.2600	71.9300	-13.8300	0.0000	0.0000	0.0000	0.0000;
	69	1410	0.00302	0.01919	0.0432	266.1	266.1	266.1	0	0	1	0	0	61.1900	-16.5200	-61.0700	12.7300	0.0000	0.0000	0.0000	0.0000;
	70	72	0	0.01	0	10	10	10	1	0	1	0	0	0.0000	0.0000	0.0000	0.0000	0.0000	0.0000	0.0000	0.0000;
	71	72	0	0.01	0	10	10	10	1	0	1	0	0	0.0000	0.0000	0.0000	0.0000	0.0000	0.0000	0.0000	0.0000;
	73	76	0.00111	0.03635	0	263.3	263.3	263.3	1	0	1	0	0	0.0000	0.0000	0.0000	0.0000	0.0000	0.0000	0.0000	0.0000;
	73	125	0.006	0.0325	0.02467	294.5	294.5	294.5	0	0	1	0	0	148.5600	-15.4800	-147.2900	19.7800	0.0000	0.0000	0.0000	0.0000;
	73	127	0.002755	0.012505	0.17824	695.2	695.2	695.2	0	0	1	0	0	-127.0200	19.8100	127.8900	-25.2200	0.0000	0.0000	0.0000	0.0000;
	73	128	0.0046	0.02508	0.01599	251.5	251.5	251.5	0	0	1	0	0	2.6600	3.3600	-2.6600	-5.0300	0.0000	0.0000	0.0000	0.0000;
	74	76	0	0.01	0	19.9	19.9	19.9	1	0	1	0	0	0.0000	0.0000	0.0000	0.0000	0.0000	0.0000	0.0000	0.0000;
	75	76	0	0.01	0	10	10	10	1	0	1	0	0	0.0000	0.0000	0.0000	0.0000	0.0000	0.0000	0.0000	0.0000;
	77	80	0.00136	0.03945	0	235.2	235.2	235.2	1	0	1	0	0	0.0000	0.0000	0.0000	0.0000	0.0000	0.0000	0.0000	0.0000;
	77	125	0.00534	0.04807	0.02563	256.6	256.6	256.6	0	0	1	0	0	68.8500	-9.4800	-68.6000	9.0200	0.0000	0.0000	0.0000	0.0000;
	78	80	0	0.01	0	10	10	10	1	0	1	0	0	0.0000	0.0000	0.0000	0.0000	0.0000	0.0000	0.0000	0.0000;
	79	80	0	0.01	0	10	10	10	1	0	1	0	0	0.0000	0.0000	0.0000	0.0000	0.0000	0.0000	0.0000	0.0000;
	81	84	0.00177	0.0517	0	260.5	260.5	260.5	1	0	1	0	0	0.0000	0.0000	0.0000	0.0000	0.0000	0.0000	0.0000	0.0000;
	93	81	0.00329	0.01972	0.03621	271.2	271.2	271.2	0	0	1	0	0	49.0300	-35.7300	-48.9100	32.7100	0.0000	0.0000	0.0000	0.0000;
	81	97	0.00245	0.01418	0.0059	268	268	268	0	0	1	0	0	44.2100	-32.9300	-44.1400	32.7400	0.0000	0.0000	0.0000	0.0000;
	82	84	0	0.01	0	18.1	18.1	18.1	1	0	1	0	0	0.0000	0.0000	0.0000	0.0000	0.0000	0.0000	0.0000	0.0000;
	83	84	0	0.01	0	10	10	10	1	0	1	0	0	0.0000	0.0000	0.0000	0.0000	0.0000	0.0000	0.0000	0.0000;
	85	88	0.00181	0.06782	0	234.4	234.4	234.4	1	0	1	0	0	0.0000	0.0000	0.0000	0.0000	0.0000	0.0000	0.0000	0.0000;
	85	109	0.00567	0.02736	0.02138	258.3	258.3	258.3	0	0	1	0	0	80.2800	-44.1500	-79.8400	44.0100	0.0000	0.0000	0.0000	0.0000;
	85	135	0.00526	0.03078	0.01461	261.8	261.8	261.8	0	0	1	0	0	-84.3500	43.1000	84.8000	-42.0000	0.0000	0.0000	0.0000	0.0000;
	86	88	0	0.01	0	10	10	10	1	0	1	0	0	0.0000	0.0000	0.0000	0.0000	0.0000	0.0000	0.0000	0.0000;
	87	88	0	0.01	0	10	10	10	1	0	1	0	0	0.0000	0.0000	0.0000	0.0000	0.0000	0.0000	0.0000	0.0000;
	89	92	0.00191	0.0681	0	232.7	232.7	232.7	1	0	1	0	0	0.0000	0.0000	0.0000	0.0000	0.0000	0.0000	0.0000	0.0000;
	89	105	0.01072	0.07485	0.02906	250.6	250.6	250.6	0	0	1	0	0	22.3800	-10.0500	-22.3200	7.4000	0.0000	0.0000	0.0000	0.0000;
	89	117	0.01888	0.08111	0.03943	259.5	259.5	259.5	0	0	1	0	0	51.5700	-0.2400	-51.0900	-1.7900	0.0000	0.0000	0.0000	0.0000;
	136	89	0.00423	0.0268	0.00885	280.1	280.1	280.1	0	0	1	0	0	78.0900	-9.2700	-77.8400	9.9200	0.0000	0.0000	0.0000	0.0000;
	90	92	0	0.01	0	10	10	10	1	0	1	0	0	0.0000	0.0000	0.0000	0.0000	0.0000	0.0000	0.0000	0.0000;
	91	92	0	0.01	0	10	10	10	1	0	1	0	0	0.0000	0.0000	0.0000	0.0000	0.0000	0.0000	0.0000	0.0000;
	93	96	0.00181	0.05198	0	246.8	246.8	246.8	1	0	1	0	0	115.3700	85.7400	-115.0000	-75.2000	0.0000	0.0000	0.0000	0.0000;
	93	117	0.00251	0.01387	0.13435	293.7	293.7	293.7	0	0	1	0	0	134.2500	-60.7200	-133.7300	49.8200	0.0000	0.0000	0.0000	0.0000;
	122	93	0.00625	0.03847	0.01973	319.4	319.4	319.4	0	0	1	0	0	134.1500	19.4400	-133.0500	-14.7300	0.0000	0.0000	0.0000	0.0000;
	93	3379	0.01925	0.09925	0.05994	294	294	294	0	0	1	0	0	-166.1700	25.3000	171.5400	-3.8500	0.0000	0.0000	0.0000	0.0000;
	94	96	0	0.01	0	11	11	11	1	0	1	0	0	0.0000	0.0000	0.0000	0.0000	0.0000	0.0000	0.0000	0.0000;
	95	96	0	0.01	0	10	10	10	1	0	1	0	0	0.0000	0.0000	0.0000	0.0000	0.0000	0.0000	0.0000	0.0000;
	97	100	0.00153	0.0464	0	257.1	257.1	257.1	1	0	1	0	0	0.0000	0.0000	0.0000	0.0000	0.0000	0.0000	0.0000	0.0000;
	97	127	0.00423	0.03299	0.01712	265.3	265.3	265.3	0	0	1	0	0	42.1900	-33.1900	-42.0700	32.3000	0.0000	0.0000	0.0000	0.0000;
	98	100	0	0.01	0	13.4	13.4	13.4	1	0	1	0	0	0.0000	0.0000	0.0000	0.0000	0.0000	0.0000	0.0000	0.0000;
	99	100	0	0.01	0	10	10	10	1	0	1	0	0	0.0000	0.0000	0.0000	0.0000	0.0000	0.0000	0.0000	0.0000;
	101	104	0.00182	0.04833	0	247.5	247.5	247.5	1	0	1	0	0	0.0000	0.0000	0.0000	0.0000	0.0000	0.0000	0.0000	0.0000;
	101	3371	0.0079	0.03647	0.04222	290.9	290.9	290.9	0	0	1	0	0	-131.9600	25.7000	133.3100	-24.0000	0.0000	0.0000	0.0000	0.0000;
	102	104	0	0.01	0	11.7	11.7	11.7	1	0	1	0	0	0.0000	0.0000	0.0000	0.0000	0.0000	0.0000	0.0000	0.0000;
	103	104	0	0.01	0	10	10	10	1	0	1	0	0	0.0000	0.0000	0.0000	0.0000	0.0000	0.0000	0.0000	0.0000;
	105	108	0.00138	0.04725	0	232.4	232.4	232.4	1	0	1	0	0	0.0000	0.0000	0.0000	0.0000	0.0000	0.0000	0.0000	0.0000;
	106	108	0	0.01	0	10	10	10	1	0	1	0	0	0.0000	0.0000	0.0000	0.0000	0.0000	0.0000	0.0000	0.0000;
	107	108	0	0.01	0	10	10	10	1	0	1	0	0	0.0000	0.0000	0.0000	0.0000	0.0000	0.0000	0.0000	0.0000;
	109	112	0.00178	0.06478	0	244.4	244.4	244.4	1	0	1	0	0	0.0000	0.0000	0.0000	0.0000	0.0000	0.0000	0.0000	0.0000;
	568	109	0.00258	0.0175	0.04609	258	258	258	0	0	1	0	0	-79.5900	0.5400	79.7500	-4.4400	0.0000	0.0000	0.0000	0.0000;
	110	112	0	0.01	0	10.2	10.2	10.2	1	0	1	0	0	0.0000	0.0000	0.0000	0.0000	0.0000	0.0000	0.0000	0.0000;
	111	112	0	0.01	0	10	10	10	1	0	1	0	0	0.0000	0.0000	0.0000	0.0000	0.0000	0.0000	0.0000	0.0000;
	113	116	0.00179	0.05302	0	232.3	232.3	232.3	1	0	1	0	0	0.0000	0.0000	0.0000	0.0000	0.0000	0.0000	0.0000	0.0000;
	139	113	0.00128	0.00739	0.01036	307.6	307.6	307.6	0	0	1	0	0	111.2600	-28.6200	-111.1100	28.4100	0.0000	0.0000	0.0000	0.0000;
	114	116	0	0.01	0	10	10	10	1	0	1	0	0	0.0000	0.0000	0.0000	0.0000	0.0000	0.0000	0.0000	0.0000;
	115	116	0	0.01	0	10	10	10	1	0	1	0	0	0.0000	0.0000	0.0000	0.0000	0.0000	0.0000	0.0000	0.0000;
	117	138	0.00404	0.02448	0.02553	309.6	309.6	309.6	0	0	1	0	0	180.1300	-48.7800	-178.7600	54.4100	0.0000	0.0000	0.0000	0.0000;
	130	118	0.00243	0.01037	0.06242	632	632	632	0	0	1	0	0	-153.8700	10.4500	154.9700	-9.0100	0.0000	0.0000	0.0000	0.0000;
	119	138	0.00435	0.02482	0.03329	270.6	270.6	270.6	0	0	1	0	0	-107.4300	7.5200	107.9200	-8.1700	0.0000	0.0000	0.0000	0.0000;
	119	725	0.01502	0.09647	0.04632	270.1	270.1	270.1	0	0	1	0	0	105.4800	-8.2000	-103.8600	13.8600	0.0000	0.0000	0.0000	0.0000;
	127	120	0.00139	0.00737	0.00665	305.1	305.1	305.1	0	0	1	0	0	125.8700	7.1000	-125.6600	-6.6900	0.0000	0.0000	0.0000	0.0000;
	138	120	0.00388	0.01996	0.00825	304.6	304.6	304.6	0	0	1	0	0	-122.9200	-4.0400	123.4800	6.0900	0.0000	0.0000	0.0000	0.0000;
	121	127	0.01179	0.04474	0.021	274.5	274.5	274.5	0	0	1	0	0	-38.6100	-1.6100	38.7800	0.0500	0.0000	0.0000	0.0000	0.0000;
	133	122	0.00682	0.04218	0.0154	337	337	337	0	0	1	0	0	-175.1900	34.1100	177.2700	-22.9000	0.0000	0.0000	0.0000	0.0000;
	122	3420	0.003035	0.017955	0.11816	711	711	711	0	0	1	0	0	-156.1700	1.5800	157.5800	0.5300	0.0000	0.0000	0.0000	0.0000;
	123	151	0.00646	0.02351	0.05405	282.3	282.3	282.3	0	0	1	0	0	-177.9700	-14.3200	180.0000	16.1500	0.0000	0.0000	0.0000	0.0000;
	123	500	0.00479	0.02609	0.13243	292.2	292.2	292.2	0	0	1	0	0	141.2400	-47.1200	-140.2200	39.2200	0.0000	0.0000	0.0000	0.0000;
	5355	124	0.00385	0.01802	0.04943	273.2	273.2	273.2	0	0	1	0	0	-44.6700	21.1700	44.7600	-26.0800	0.0000	0.0000	0.0000	0.0000;
	124	6537	0.00457	0.0216	0.11878	229.9	229.9	229.9	0	0	1	0	0	-50.0400	-5.3900	50.1500	-6.9200	0.0000	0.0000	0.0000	0.0000;
	1410	125	0.00073	0.00474	0.00125	305.3	305.3	305.3	0	0	1	0	0	-188.8300	34.6700	189.0900	-33.1300	0.0000	0.0000	0.0000	0.0000;
	127	126	0.00013	0.009045	0	988	988	988	1	0	1	0	0	-300.4300	-35.4000	300.6600	51.1000	0.0000	0.0000	0.0000	0.0000;
	126	1215	0.0004	0.00494	0.11262	1371.2	1371.2	1371.2	0	0	1	0	0	-847.6300	1.5700	850.3100	19.4300	0.0000	0.0000	0.0000	0.0000;
	126	1304	0.00095	0.01124	0.17615	1166.3	1166.3	1166.3	0	0	1	0	0	590.1100	-79.2300	-586.9800	97.3000	0.0000	0.0000	0.0000	0.0000;
	1388	126	0.0011	0.01366	0.35493	1310.8	1310.8	1310.8	0	0	1	0	0	-546.0300	80.0600	549.1600	-79.3800	0.0000	0.0000	0.0000	0.0000;
	126	3515	0.00205	0.01872	0.43705	1245.4	1245.4	1245.4	0	0	1	0	0	-892.9600	137.2100	908.7100	-40.3600	0.0000	0.0000	0.0000	0.0000;
	128	134	0.00077	0.00569	0.00271	239.2	239.2	239.2	0	0	1	0	0	-38.7400	-1.6700	38.7500	1.4600	0.0000	0.0000	0.0000	0.0000;
	129	144	0.00275	0.01356	0.05326	281.1	281.1	281.1	0	0	1	0	0	-80.3700	-28.9200	80.5600	24.1400	0.0000	0.0000	0.0000	0.0000;
	129	147	0.00226	0.01521	0.01849	254	254	254	0	0	1	0	0	42.6700	20.6600	-42.6200	-22.2800	0.0000	0.0000	0.0000	0.0000;
	146	130	0.00533	0.03435	0.02942	302	302	302	0	0	1	0	0	-173.1000	34.3700	174.6900	-27.2200	0.0000	0.0000	0.0000	0.0000;
	151	130	0.00055	0.0038	0.00809	285.3	285.3	285.3	0	0	1	0	0	-186.4000	-18.1800	186.5900	18.6100	0.0000	0.0000	0.0000	0.0000;
	5334	130	0.00473	0.03217	0.01435	267.1	267.1	267.1	0	0	1	0	0	64.0400	13.2200	-63.8500	-13.4300	0.0000	0.0000	0.0000	0.0000;
	159	131	0.00088	0.00585	0.00263	288.3	288.3	288.3	0	0	1	0	0	-172.7100	23.5500	172.9600	-22.1700	0.0000	0.0000	0.0000	0.0000;
	131	161	0.00316	0.01426	0.00879	293.7	293.7	293.7	0	0	1	0	0	-188.4600	19.6100	189.5200	-15.7800	0.0000	0.0000	0.0000	0.0000;
	1362	132	0.00299	0.01389	0.00387	311.3	311.3	311.3	0	0	1	0	0	232.9800	21.0800	-231.4400	-14.3200	0.0000	0.0000	0.0000	0.0000;
	135	138	0.001	0.0055	0.0017	302.9	302.9	302.9	0	0	1	0	0	-178.5300	49.1300	178.8600	-47.4900	0.0000	0.0000	0.0000	0.0000;
	136	3353	0.0056	0.03442	0.04795	285.7	285.7	285.7	0	0	1	0	0	-87.5900	6.1800	88.0000	-8.6800	0.0000	0.0000	0.0000	0.0000;
	137	152	0.00377	0.02057	0.03892	236.5	236.5	236.5	0	0	1	0	0	19.2600	-3.0000	-19.2500	-1.0500	0.0000	0.0000	0.0000	0.0000;
	137	156	0.00243	0.01399	0.01358	244.4	244.4	244.4	0	0	1	0	0	-20.2900	-9.0900	20.3000	7.7100	0.0000	0.0000	0.0000	0.0000;
	6577	139	0.00656	0.0335	0.01042	307.9	307.9	307.9	0	0	1	0	0	112.5600	-25.4900	-111.7400	28.5400	0.0000	0.0000	0.0000	0.0000;
	140	148	0.00241	0.015	0.0099	252.7	252.7	252.7	0	0	1	0	0	-17.8900	18.0500	17.9000	-19.0000	0.0000	0.0000	0.0000	0.0000;
	140	149	0.00343	0.01506	0.01184	244.3	244.3	244.3	0	0	1	0	0	8.4900	-19.4000	-8.4700	18.2000	0.0000	0.0000	0.0000	0.0000;
	144	141	0.002	0.00998	0.00696	282.3	282.3	282.3	0	0	1	0	0	-149.5000	50.1700	149.9600	-48.6000	0.0000	0.0000	0.0000	0.0000;
	141	149	0.00244	0.01111	0.04148	241.1	241.1	241.1	0	0	1	0	0	1.3400	17.3500	-1.3300	-21.7400	0.0000	0.0000	0.0000	0.0000;
	141	159	0.00192	0.0096	0.00831	287.4	287.4	287.4	0	0	1	0	0	-169.4000	26.2800	169.9200	-24.5300	0.0000	0.0000	0.0000	0.0000;
	142	147	0.00201	0.01236	0.0071	274.1	274.1	274.1	0	0	1	0	0	77.6200	-35.7200	-77.4800	35.8300	0.0000	0.0000	0.0000	0.0000;
	142	1406	0.00874	0.04495	0.03184	275.8	275.8	275.8	0	0	1	0	0	-99.0800	19.2200	99.9300	-18.1600	0.0000	0.0000	0.0000	0.0000;
	143	807	0.00419	0.01898	0.11622	307.9	307.9	307.9	0	0	1	0	0	164.1800	-24.2000	-163.1100	16.6600	0.0000	0.0000	0.0000	0.0000;
	1404	143	0.00178	0.01283	0.00335	308.8	308.8	308.8	0	0	1	0	0	170.9700	-20.1100	-170.4800	23.3000	0.0000	0.0000	0.0000	0.0000;
	145	212	0.00681	0.03795	0.08481	350	297	297	0	0	1	0	0	242.6800	0.6900	-238.8100	12.2000	0.0000	0.0000	0.0000	0.0000;
	145	5351	0.00617	0.0356	0.07357	283.9	283.9	283.9	0	0	1	0	0	-180.1000	6.2200	182.0300	-2.7500	0.0000	0.0000	0.0000	0.0000;
	5357	145	0.00274	0.01706	0.01722	266.1	266.1	266.1	0	0	1	0	0	64.5800	6.1900	-64.4600	-7.2900	0.0000	0.0000	0.0000	0.0000;
	146	157	0.00402	0.01801	0.01437	301.6	301.6	301.6	0	0	1	0	0	172.1400	-34.6000	-170.9600	38.3800	0.0000	0.0000	0.0000	0.0000;
	147	158	0.00608	0.02558	0.01014	274.3	274.3	274.3	0	0	1	0	0	113.6000	-14.3800	-112.8400	16.4900	0.0000	0.0000	0.0000	0.0000;
...